&HEAD CHID='1m_mesh_1'/
&TIME T_END=10.0/
&DUMP RENDER_FILE='1m_mesh_1.ge1', DT_RESTART=300.0/

&MESH ID='Mesh', IJK=100,100,100, XB=0.0,10.0,0.0,10.0,0.0,10.0/


&REAC ID='POLYURETHANE_REAC',
      FYI='SFPE Handbook, GM27',
      FUEL='REAC_FUEL',
      C=1.0,
      H=1.7,
      O=0.3,
      N=0.08,
      CO_YIELD=0.042,
      SOOT_YIELD=0.198/

&SURF ID='0.5mw medium 0.1',
      COLOR='RED',
      HRRPUA=500.0,
      RAMP_Q='0.5mw medium 0.1_RAMP_Q',
      TMP_FRONT=300.0/
&RAMP ID='0.5mw medium 0.1_RAMP_Q', T=0.0, F=1.0/
&RAMP ID='0.5mw medium 0.1_RAMP_Q', T=210.0, F=1.0/
&RAMP ID='0.5mw medium 0.1_RAMP_Q', T=270.0, F=1.0/
&RAMP ID='0.5mw medium 0.1_RAMP_Q', T=330.0, F=0.34398/
&RAMP ID='0.5mw medium 0.1_RAMP_Q', T=3000.0, F=0.34398/

&VENT ID='fire', SURF_ID='0.5mw medium 0.1', XB=2.0,3.0,2,3,0,0, / 

&TAIL /
