travelling_fire-1cw.fds
Generated by PyroSim - Version 2019.1.0515
01-Jul-2020 13:11:45

&HEAD CHID='travelling_fire-1cw'/
&TIME T_END=600.0/
&DUMP RENDER_FILE='travelling_fire-1cw.ge1', COLUMN_DUMP_LIMIT=.TRUE., DT_RESTART=300.0, DT_SL3D=0.25/

&MESH ID='MPI0', IJK=125,89,29, XB=-1.0,24.0,33.2,51.0,2.6,8.4, MPI_PROCESS=0/
&MESH ID='MPI1', IJK=125,85,29, XB=-1.0,24.0,16.2,33.2,2.6,8.4, MPI_PROCESS=1/
&MESH ID='MPI2_0', IJK=125,86,29, XB=-1.0,24.0,-1.0,16.2,2.6,8.4, MPI_PROCESS=2/
&MESH ID='MPI2_1', IJK=11,60,29, XB=24.0,26.2,-1.0,11.0,2.6,8.4, MPI_PROCESS=2/
&MESH ID='MPI3', IJK=200,56,29, XB=24.0,64.0,11.0,22.2,2.6,8.4, MPI_PROCESS=3/
&MESH ID='MPI4_0', IJK=128,60,29, XB=38.4,64.0,22.2,34.2,2.6,8.4, MPI_PROCESS=4/
&MESH ID='MPI4_1', IJK=72,38,29, XB=24.0,38.4,22.2,29.8,2.6,8.4, MPI_PROCESS=4/
&MESH ID='MPI5', IJK=128,84,29, XB=38.4,64.0,34.2,51.0,2.6,8.4, MPI_PROCESS=5/


&REAC ID='POLYURETHANE',
      FYI='NFPA Babrauskas',
      FUEL='REAC_FUEL',
      C=6.3,
      H=7.1,
      O=2.1,
      N=1.0,
      SOOT_YIELD=0.1,
      RADIATIVE_FRACTION=0.35/

&MATL ID='CONCRETE',
      FYI='NBSIR 88-3752 - ATF NIST Multi-Floor Validation',
      SPECIFIC_HEAT=1.04,
      CONDUCTIVITY=1.8,
      DENSITY=2280.0/
&MATL ID='STEEL',
      FYI='Drysdale, Intro to Fire Dynamics - ATF NIST Multi-Floor Validation',
      SPECIFIC_HEAT=0.46,
      CONDUCTIVITY=45.8,
      DENSITY=7850.0,
      EMISSIVITY=0.95/

&SURF ID='CONCRETE',
      COLOR='GRAY 80',
      BACKING='VOID',
      MATL_ID(1,1)='CONCRETE',
      MATL_MASS_FRACTION(1,1)=1.0,
      THICKNESS(1)=0.1/
&SURF ID='STEEL',
      COLOR='GRAY 80',
      BACKING='VOID',
      MATL_ID(1,1)='STEEL',
      MATL_MASS_FRACTION(1,1)=1.0,
      THICKNESS(1)=0.01/
&SURF ID='MLR_FIRE',
      COLOR='RED',
      MLRPUA=0.019084,
      ADIABATIC=.TRUE./

&OBST ID='ext_col_1', XB=-0.4,0.4,49.6,50.4,0.0,15.0, SURF_ID='STEEL'/ 
&OBST ID='ext_col_2', XB=-0.2,0.2,24.6,25.4,0.0,15.0, SURF_ID='STEEL'/ 
&OBST ID='ext_col_3', XB=-0.4,0.4,-0.4,0.4,0.0,15.0, SURF_ID='STEEL'/ 
&OBST ID='ext_col_4', XB=24.6,25.4,12.0,12.8,0.0,15.0, SURF_ID='STEEL'/ 
&OBST ID='ext_col_5', XB=49.6,50.4,49.8,50.2,0.0,15.0, SURF_ID='STEEL'/ 
&OBST ID='int_col_1', XB=12.0,12.8,40.2,41.0,0.0,15.0, SURF_ID='STEEL'/ 
&OBST ID='int_col_2', XB=12.4,12.8,24.6,25.4,0.0,15.0, SURF_ID='STEEL'/ 
&OBST ID='int_col_3', XB=12.2,13.0,12.0,12.8,0.0,15.0, SURF_ID='STEEL'/ 
&OBST ID='int_col_4', XB=49.6,50.4,40.6,41.0,0.0,15.0, SURF_ID='STEEL'/ 
&OBST ID='Obstruction', XB=24.6,25.4,-0.4,0.4,0.0,15.0, SURF_ID='STEEL'/ 
&OBST ID='Obstruction', XB=62.0,62.8,12.0,12.8,0.0,15.0, SURF_ID='STEEL'/ 
&OBST ID='Obstruction', XB=62.0,62.8,49.6,50.4,0.0,15.0, SURF_ID='STEEL'/ 
&OBST ID='Obstruction', XB=37.2,38.0,12.2,12.6,0.0,15.0, SURF_ID='STEEL'/ 
&OBST ID='Obstruction', XB=49.6,50.4,12.2,12.6,0.0,15.0, SURF_ID='STEEL'/ 
&OBST ID='Obstruction', XB=12.0,12.8,-0.2,0.2,0.0,15.0, SURF_ID='STEEL'/ 
&OBST ID='Obstruction', XB=-0.2,0.2,37.0,37.8,0.0,15.0, SURF_ID='STEEL'/ 
&OBST ID='Obstruction', XB=-0.2,0.2,12.0,12.8,0.0,15.0, SURF_ID='STEEL'/ 
&OBST ID='Obstruction', XB=12.2,13.0,49.8,50.2,0.0,15.0, SURF_ID='STEEL'/ 
&OBST ID='Obstruction', XB=24.6,25.4,49.8,50.2,0.0,15.0, SURF_ID='STEEL'/ 
&OBST ID='Obstruction', XB=37.2,38.0,49.8,50.2,0.0,15.0, SURF_ID='STEEL'/ 
&OBST ID='Obstruction', XB=62.2,62.6,37.0,37.8,0.0,15.0, SURF_ID='STEEL'/ 
&OBST ID='Obstruction', XB=62.2,62.6,24.6,25.4,0.0,15.0, SURF_ID='STEEL'/ 
&OBST ID='Core obstacale', XB=21.2,24.0,45.8,49.2,3.6,8.4, SURF_ID='CONCRETE'/ 
&OBST ID='Core obstacale', XB=21.6,24.0,43.2,45.8,3.6,8.4, SURF_ID='CONCRETE'/ 
&OBST ID='Core obstacale', XB=22.0,24.0,35.8,43.2,3.6,8.4, SURF_ID='CONCRETE'/ 
&OBST ID='Core obstacale', XB=24.0,24.0,33.2,35.8,3.6,8.4, SURF_ID='CONCRETE'/ 
&OBST ID='Core obstacale', XB=24.0,24.0,29.8,33.2,3.6,8.4, SURF_ID='CONCRETE'/ 
&OBST ID='Core obstacale', XB=38.4,38.4,29.8,34.2,3.6,8.4, SURF_ID='CONCRETE'/ 
&OBST ID='Core obstacale', XB=26.8,29.4,27.6,28.2,3.6,8.4, SURF_ID='CONCRETE'/ 
&OBST ID='Core obstacale', XB=26.8,35.6,28.2,29.8,3.6,8.4, SURF_ID='CONCRETE'/ 
&OBST ID='Core obstacale', XB=33.2,35.6,27.6,28.2,3.6,8.4, SURF_ID='CONCRETE'/ 
&OBST ID='Core obstacale', XB=24.0,26.8,29.8,29.8,3.6,8.4, SURF_ID='CONCRETE'/ 
&OBST ID='Core obstacale', XB=35.6,38.4,29.8,29.8,3.6,8.4, SURF_ID='CONCRETE'/ 
&OBST ID='Core obstacale', XB=38.4,40.0,41.4,44.8,3.6,8.4, SURF_ID='CONCRETE'/ 
&OBST ID='Core obstacale', XB=38.4,40.6,35.8,41.4,3.6,8.4, SURF_ID='CONCRETE'/ 
&OBST ID='Core obstacale', XB=38.4,40.8,44.8,49.2,3.6,8.4, SURF_ID='CONCRETE'/ 
&OBST ID='Core obstacale', XB=38.4,38.4,34.2,35.8,3.6,8.4, SURF_ID='CONCRETE'/ 
&OBST ID='Core wall', XB=29.6,33.0,28.0,28.2,3.82,7.62, SURF_ID='CONCRETE'/ 
&OBST ID='Core wall', XB=21.0,21.2,45.8,49.2,3.8,7.6, SURF_ID='CONCRETE'/ 
&OBST ID='Core wall', XB=21.0,21.6,45.6,45.8,3.8,7.6, SURF_ID='CONCRETE'/ 
&OBST ID='Core wall', XB=21.4,21.6,43.2,45.6,3.8,7.6, SURF_ID='CONCRETE'/ 
&OBST ID='Core wall', XB=21.4,22.0,43.0,43.2,3.8,7.6, SURF_ID='CONCRETE'/ 
&OBST ID='Core wall', XB=21.8,22.0,35.8,43.0,3.8,7.6, SURF_ID='CONCRETE'/ 
&OBST ID='Core wall', XB=21.8,24.0,35.6,35.8,3.8,7.6, SURF_ID='CONCRETE'/ 
&OBST ID='Core wall', XB=23.8,24.0,33.2,35.6,3.8,7.6, SURF_ID='CONCRETE'/ 
&OBST ID='Core wall', XB=29.6,33.0,28.0,28.2,3.82,7.62, SURF_ID='CONCRETE'/ 
&OBST ID='Core wall', XB=23.8,24.0,29.6,33.2,3.8,7.6, SURF_ID='CONCRETE'/ 
&OBST ID='Core wall', XB=29.6,33.0,28.0,28.2,3.82,7.62, SURF_ID='CONCRETE'/ 
&OBST ID='Core wall', XB=29.6,33.0,28.0,28.2,3.82,7.62, SURF_ID='CONCRETE'/ 
&OBST ID='Core wall', XB=29.6,33.0,28.0,28.2,3.82,7.62, SURF_ID='CONCRETE'/ 
&OBST ID='Core wall', XB=29.6,33.0,28.0,28.2,3.82,7.62, SURF_ID='CONCRETE'/ 
&OBST ID='Core wall', XB=38.4,38.6,29.6,34.2,3.8,7.6, SURF_ID='CONCRETE'/ 
&OBST ID='Core wall', XB=29.6,33.0,28.0,28.2,3.82,7.62, SURF_ID='CONCRETE'/ 
&OBST ID='Core wall', XB=24.0,26.8,29.6,29.8,3.8,7.6, SURF_ID='CONCRETE'/ 
&OBST ID='Core wall', XB=26.6,26.8,27.6,29.6,3.8,7.6, SURF_ID='CONCRETE'/ 
&OBST ID='Core wall', XB=26.6,29.6,27.4,27.6,3.8,7.6, SURF_ID='CONCRETE'/ 
&OBST ID='Core wall', XB=29.4,29.6,27.6,28.4,3.8,7.6, SURF_ID='CONCRETE'/ 
&OBST ID='Core wall', XB=33.0,33.2,27.6,28.4,3.8,7.6, SURF_ID='CONCRETE'/ 
&OBST ID='Core wall', XB=33.0,35.8,27.4,27.6,3.8,7.6, SURF_ID='CONCRETE'/ 
&OBST ID='Core wall', XB=35.6,35.8,27.6,29.6,3.8,7.6, SURF_ID='CONCRETE'/ 
&OBST ID='Core wall', XB=35.6,38.4,29.6,29.8,3.8,7.6, SURF_ID='CONCRETE'/ 
&OBST ID='Core wall', XB=29.6,33.0,28.0,28.2,3.82,7.62, SURF_ID='CONCRETE'/ 
&OBST ID='Core wall', XB=38.4,38.6,34.2,35.6,3.8,7.6, SURF_ID='CONCRETE'/ 
&OBST ID='Core wall', XB=38.4,40.8,35.6,35.8,3.8,7.6, SURF_ID='CONCRETE'/ 
&OBST ID='Core wall', XB=40.0,40.2,41.6,44.6,3.8,7.6, SURF_ID='CONCRETE'/ 
&OBST ID='Core wall', XB=40.0,40.8,41.4,41.6,3.8,7.6, SURF_ID='CONCRETE'/ 
&OBST ID='Core wall', XB=40.0,41.0,44.6,44.8,3.8,7.6, SURF_ID='CONCRETE'/ 
&OBST ID='Core wall', XB=40.6,40.8,35.8,41.4,3.8,7.6, SURF_ID='CONCRETE'/ 
&OBST ID='Core wall', XB=40.8,41.0,44.8,49.2,3.8,7.6, SURF_ID='CONCRETE'/ 
&OBST ID='Floor', XB=0.8,24.0,33.2,49.2,3.6,3.8, COLOR='INVISIBLE', SURF_ID='CONCRETE'/ 
&OBST ID='Floor', XB=0.8,24.0,16.2,33.2,3.6,3.8, COLOR='INVISIBLE', SURF_ID='CONCRETE'/ 
&OBST ID='Floor', XB=0.8,24.0,0.8,16.2,3.6,3.8, COLOR='INVISIBLE', SURF_ID='CONCRETE'/ 
&OBST ID='Floor', XB=24.0,24.2,0.8,11.0,3.6,3.8, COLOR='INVISIBLE', SURF_ID='CONCRETE'/ 
&OBST ID='Floor', XB=24.0,24.2,11.0,14.2,3.6,3.8, COLOR='INVISIBLE', SURF_ID='CONCRETE'/ 
&OBST ID='Floor', XB=24.0,61.8,14.2,22.2,3.6,3.8, COLOR='INVISIBLE', SURF_ID='CONCRETE'/ 
&OBST ID='Floor', XB=37.4,61.8,13.2,14.2,3.6,3.8, COLOR='INVISIBLE', SURF_ID='CONCRETE'/ 
&OBST ID='Floor', XB=38.4,61.8,22.2,34.2,3.6,3.8, COLOR='INVISIBLE', SURF_ID='CONCRETE'/ 
&OBST ID='Floor', XB=24.0,38.4,22.2,29.8,3.6,3.8, COLOR='INVISIBLE', SURF_ID='CONCRETE'/ 
&OBST ID='Floor', XB=38.4,61.8,34.2,49.2,3.6,3.8, COLOR='INVISIBLE', SURF_ID='CONCRETE'/ 
&OBST ID='Floor', XB=0.8,24.0,33.2,49.2,7.4,7.6, COLOR='INVISIBLE', SURF_ID='CONCRETE'/ 
&OBST ID='Floor', XB=0.8,24.0,16.2,33.2,7.4,7.6, COLOR='INVISIBLE', SURF_ID='CONCRETE'/ 
&OBST ID='Floor', XB=0.8,24.0,0.8,16.2,7.4,7.6, COLOR='INVISIBLE', SURF_ID='CONCRETE'/ 
&OBST ID='Floor', XB=24.0,24.2,0.8,11.0,7.4,7.6, COLOR='INVISIBLE', SURF_ID='CONCRETE'/ 
&OBST ID='Floor', XB=24.0,24.2,11.0,14.2,7.4,7.6, COLOR='INVISIBLE', SURF_ID='CONCRETE'/ 
&OBST ID='Floor', XB=24.0,61.8,14.2,22.2,7.4,7.6, COLOR='INVISIBLE', SURF_ID='CONCRETE'/ 
&OBST ID='Floor', XB=37.4,61.8,13.2,14.2,7.4,7.6, COLOR='INVISIBLE', SURF_ID='CONCRETE'/ 
&OBST ID='Floor', XB=38.4,61.8,22.2,34.2,7.4,7.6, COLOR='INVISIBLE', SURF_ID='CONCRETE'/ 
&OBST ID='Floor', XB=24.0,38.4,22.2,29.8,7.4,7.6, COLOR='INVISIBLE', SURF_ID='CONCRETE'/ 
&OBST ID='Floor', XB=38.4,61.8,34.2,49.4,7.4,7.6, COLOR='INVISIBLE', SURF_ID='CONCRETE'/ 

&VENT ID='Mesh Vent: MPI0 [XMAX]', SURF_ID='OPEN', XB=24.0,24.0,33.2,51.0,2.6,8.4/ 
&VENT ID='Mesh Vent: MPI0 [XMIN]', SURF_ID='OPEN', XB=-1.0,-1.0,33.2,51.0,2.6,8.4/ 
&VENT ID='Mesh Vent: MPI0 [YMAX]', SURF_ID='OPEN', XB=-1.0,24.0,51.0,51.0,2.6,8.4/ 
&VENT ID='Mesh Vent: MPI0 [ZMAX]', SURF_ID='OPEN', XB=-1.0,24.0,33.2,51.0,8.4,8.4/ 
&VENT ID='Mesh Vent: MPI0 [ZMIN]', SURF_ID='OPEN', XB=-1.0,24.0,33.2,51.0,2.6,2.6/ 
&VENT ID='Mesh Vent: MPI1 [XMAX]', SURF_ID='OPEN', XB=24.0,24.0,29.8,33.2,2.6,8.4/ 
&VENT ID='Mesh Vent: MPI1 [XMIN]', SURF_ID='OPEN', XB=-1.0,-1.0,16.2,33.2,2.6,8.4/ 
&VENT ID='Mesh Vent: MPI1 [ZMAX]', SURF_ID='OPEN', XB=-1.0,24.0,16.2,33.2,8.4,8.4/ 
&VENT ID='Mesh Vent: MPI1 [ZMIN]', SURF_ID='OPEN', XB=-1.0,24.0,16.2,33.2,2.6,2.6/ 
&VENT ID='Mesh Vent: MPI2_0 [XMIN]', SURF_ID='OPEN', XB=-1.0,-1.0,-1.0,16.2,2.6,8.4/ 
&VENT ID='Mesh Vent: MPI2_0 [YMIN]', SURF_ID='OPEN', XB=-1.0,24.0,-1.0,-1.0,2.6,8.4/ 
&VENT ID='Mesh Vent: MPI2_0 [ZMAX]', SURF_ID='OPEN', XB=-1.0,24.0,-1.0,16.2,8.4,8.4/ 
&VENT ID='Mesh Vent: MPI2_0 [ZMIN]', SURF_ID='OPEN', XB=-1.0,24.0,-1.0,16.2,2.6,2.6/ 
&VENT ID='Mesh Vent: MPI2_1 [XMAX]', SURF_ID='OPEN', XB=26.2,26.2,-1.0,11.0,2.6,8.4/ 
&VENT ID='Mesh Vent: MPI2_1 [YMIN]', SURF_ID='OPEN', XB=24.0,26.2,-1.0,-1.0,2.6,8.4/ 
&VENT ID='Mesh Vent: MPI2_1 [ZMAX]', SURF_ID='OPEN', XB=24.0,26.2,-1.0,11.0,8.4,8.4/ 
&VENT ID='Mesh Vent: MPI2_1 [ZMIN]', SURF_ID='OPEN', XB=24.0,26.2,-1.0,11.0,2.6,2.6/ 
&VENT ID='Mesh Vent: MPI3 [XMAX]', SURF_ID='OPEN', XB=64.0,64.0,11.0,22.2,2.6,8.4/ 
&VENT ID='Mesh Vent: MPI3 [YMIN]', SURF_ID='OPEN', XB=26.2,64.0,11.0,11.0,2.6,8.4/ 
&VENT ID='Mesh Vent: MPI3 [ZMAX]', SURF_ID='OPEN', XB=24.0,64.0,11.0,22.2,8.4,8.4/ 
&VENT ID='Mesh Vent: MPI3 [ZMIN]', SURF_ID='OPEN', XB=24.0,64.0,11.0,22.2,2.6,2.6/ 
&VENT ID='Mesh Vent: MPI4_0 [XMAX]', SURF_ID='OPEN', XB=64.0,64.0,22.2,34.2,2.6,8.4/ 
&VENT ID='Mesh Vent: MPI4_0 [XMIN]', SURF_ID='OPEN', XB=38.4,38.4,29.8,34.2,2.6,8.4/ 
&VENT ID='Mesh Vent: MPI4_0 [ZMAX]', SURF_ID='OPEN', XB=38.4,64.0,22.2,34.2,8.4,8.4/ 
&VENT ID='Mesh Vent: MPI4_0 [ZMIN]', SURF_ID='OPEN', XB=38.4,64.0,22.2,34.2,2.6,2.6/ 
&VENT ID='Mesh Vent: MPI4_1 [YMAX]', SURF_ID='OPEN', XB=24.0,38.4,29.8,29.8,2.6,8.4/ 
&VENT ID='Mesh Vent: MPI4_1 [ZMAX]', SURF_ID='OPEN', XB=24.0,38.4,22.2,29.8,8.4,8.4/ 
&VENT ID='Mesh Vent: MPI4_1 [ZMIN]', SURF_ID='OPEN', XB=24.0,38.4,22.2,29.8,2.6,2.6/ 
&VENT ID='Mesh Vent: MPI5 [XMAX]', SURF_ID='OPEN', XB=64.0,64.0,34.2,51.0,2.6,8.4/ 
&VENT ID='Mesh Vent: MPI5 [XMIN]', SURF_ID='OPEN', XB=38.4,38.4,34.2,51.0,2.6,8.4/ 
&VENT ID='Mesh Vent: MPI5 [YMAX]', SURF_ID='OPEN', XB=38.4,64.0,51.0,51.0,2.6,8.4/ 
&VENT ID='Mesh Vent: MPI5 [ZMAX]', SURF_ID='OPEN', XB=38.4,64.0,34.2,51.0,8.4,8.4/ 
&VENT ID='Mesh Vent: MPI5 [ZMIN]', SURF_ID='OPEN', XB=38.4,64.0,34.2,51.0,2.6,2.6/ 
&VENT ID='travelling_fire_a_00', SURF_ID='MLR_FIRE', XB=0.8,1.8,48.2,49.2,3.82,3.82/ 
&VENT ID='travelling_fire_a_01', SURF_ID='MLR_FIRE', XB=1.8,2.8,48.2,49.2,3.82,3.82/ 
&VENT ID='travelling_fire_a_02', SURF_ID='MLR_FIRE', XB=2.8,3.8,48.2,49.2,3.82,3.82/ 
&VENT ID='travelling_fire_a_03', SURF_ID='MLR_FIRE', XB=3.8,4.8,48.2,49.2,3.82,3.82/ 
&VENT ID='travelling_fire_a_04', SURF_ID='MLR_FIRE', XB=4.8,5.8,48.2,49.2,3.82,3.82/ 
&VENT ID='travelling_fire_a_05', SURF_ID='MLR_FIRE', XB=5.8,6.8,48.2,49.2,3.82,3.82/ 
&VENT ID='travelling_fire_a_06', SURF_ID='MLR_FIRE', XB=6.8,7.8,48.2,49.2,3.82,3.82/ 
&VENT ID='travelling_fire_a_07', SURF_ID='MLR_FIRE', XB=7.8,8.8,48.2,49.2,3.82,3.82/ 
&VENT ID='travelling_fire_a_08', SURF_ID='MLR_FIRE', XB=8.8,9.8,48.2,49.2,3.82,3.82/ 
&VENT ID='travelling_fire_a_09', SURF_ID='MLR_FIRE', XB=9.8,10.8,48.2,49.2,3.82,3.82/ 
&VENT ID='travelling_fire_a_10', SURF_ID='MLR_FIRE', XB=10.8,11.8,48.2,49.2,3.82,3.82/ 
&VENT ID='travelling_fire_a_11', SURF_ID='MLR_FIRE', XB=11.8,12.8,48.2,49.2,3.82,3.82/ 
&VENT ID='travelling_fire_a_12', SURF_ID='MLR_FIRE', XB=12.8,13.8,48.2,49.2,3.82,3.82/ 
&VENT ID='travelling_fire_a_13', SURF_ID='MLR_FIRE', XB=13.8,14.8,48.2,49.2,3.82,3.82/ 
&VENT ID='travelling_fire_a_14', SURF_ID='MLR_FIRE', XB=14.8,15.8,48.2,49.2,3.82,3.82/ 
&VENT ID='travelling_fire_a_15', SURF_ID='MLR_FIRE', XB=15.8,16.8,48.2,49.2,3.82,3.82/ 
&VENT ID='travelling_fire_a_16', SURF_ID='MLR_FIRE', XB=16.8,17.8,48.2,49.2,3.82,3.82/ 
&VENT ID='travelling_fire_a_17', SURF_ID='MLR_FIRE', XB=17.8,18.8,48.2,49.2,3.82,3.82/ 
&VENT ID='travelling_fire_a_18', SURF_ID='MLR_FIRE', XB=18.8,19.8,48.2,49.2,3.82,3.82/ 
&VENT ID='travelling_fire_a_19', SURF_ID='MLR_FIRE', XB=19.8,20.8,48.2,49.2,3.82,3.82/ 
&VENT ID='travelling_fire_a_20', SURF_ID='MLR_FIRE', XB=0.8,1.8,47.2,48.2,3.82,3.82/ 
&VENT ID='travelling_fire_a_21', SURF_ID='MLR_FIRE', XB=1.8,2.8,47.2,48.2,3.82,3.82/ 
&VENT ID='travelling_fire_a_22', SURF_ID='MLR_FIRE', XB=2.8,3.8,47.2,48.2,3.82,3.82/ 
&VENT ID='travelling_fire_a_23', SURF_ID='MLR_FIRE', XB=3.8,4.8,47.2,48.2,3.82,3.82/ 
&VENT ID='travelling_fire_a_24', SURF_ID='MLR_FIRE', XB=4.8,5.8,47.2,48.2,3.82,3.82/ 
&VENT ID='travelling_fire_a_25', SURF_ID='MLR_FIRE', XB=5.8,6.8,47.2,48.2,3.82,3.82/ 
&VENT ID='travelling_fire_a_26', SURF_ID='MLR_FIRE', XB=6.8,7.8,47.2,48.2,3.82,3.82/ 
&VENT ID='travelling_fire_a_27', SURF_ID='MLR_FIRE', XB=7.8,8.8,47.2,48.2,3.82,3.82/ 
&VENT ID='travelling_fire_a_28', SURF_ID='MLR_FIRE', XB=8.8,9.8,47.2,48.2,3.82,3.82/ 
&VENT ID='travelling_fire_a_29', SURF_ID='MLR_FIRE', XB=9.8,10.8,47.2,48.2,3.82,3.82/ 
&VENT ID='travelling_fire_a_30', SURF_ID='MLR_FIRE', XB=10.8,11.8,47.2,48.2,3.82,3.82/ 
&VENT ID='travelling_fire_a_31', SURF_ID='MLR_FIRE', XB=11.8,12.8,47.2,48.2,3.82,3.82/ 
&VENT ID='travelling_fire_a_32', SURF_ID='MLR_FIRE', XB=12.8,13.8,47.2,48.2,3.82,3.82/ 
&VENT ID='travelling_fire_a_33', SURF_ID='MLR_FIRE', XB=13.8,14.8,47.2,48.2,3.82,3.82/ 
&VENT ID='travelling_fire_a_34', SURF_ID='MLR_FIRE', XB=14.8,15.8,47.2,48.2,3.82,3.82/ 
&VENT ID='travelling_fire_a_35', SURF_ID='MLR_FIRE', XB=15.8,16.8,47.2,48.2,3.82,3.82/ 
&VENT ID='travelling_fire_a_36', SURF_ID='MLR_FIRE', XB=16.8,17.8,47.2,48.2,3.82,3.82/ 
&VENT ID='travelling_fire_a_37', SURF_ID='MLR_FIRE', XB=17.8,18.8,47.2,48.2,3.82,3.82/ 
&VENT ID='travelling_fire_a_38', SURF_ID='MLR_FIRE', XB=18.8,19.8,47.2,48.2,3.82,3.82/ 
&VENT ID='travelling_fire_a_39', SURF_ID='MLR_FIRE', XB=19.8,20.8,47.2,48.2,3.82,3.82/ 
&VENT ID='travelling_fire_a_40', SURF_ID='MLR_FIRE', XB=0.8,1.8,46.2,47.2,3.82,3.82/ 
&VENT ID='travelling_fire_a_41', SURF_ID='MLR_FIRE', XB=1.8,2.8,46.2,47.2,3.82,3.82/ 
&VENT ID='travelling_fire_a_42', SURF_ID='MLR_FIRE', XB=2.8,3.8,46.2,47.2,3.82,3.82/ 
&VENT ID='travelling_fire_a_43', SURF_ID='MLR_FIRE', XB=3.8,4.8,46.2,47.2,3.82,3.82/ 
&VENT ID='travelling_fire_a_44', SURF_ID='MLR_FIRE', XB=4.8,5.8,46.2,47.2,3.82,3.82/ 
&VENT ID='travelling_fire_a_45', SURF_ID='MLR_FIRE', XB=5.8,6.8,46.2,47.2,3.82,3.82/ 
&VENT ID='travelling_fire_a_46', SURF_ID='MLR_FIRE', XB=6.8,7.8,46.2,47.2,3.82,3.82/ 
&VENT ID='travelling_fire_a_47', SURF_ID='MLR_FIRE', XB=7.8,8.8,46.2,47.2,3.82,3.82/ 
&VENT ID='travelling_fire_a_48', SURF_ID='MLR_FIRE', XB=8.8,9.8,46.2,47.2,3.82,3.82/ 
&VENT ID='travelling_fire_a_49', SURF_ID='MLR_FIRE', XB=9.8,10.8,46.2,47.2,3.82,3.82/ 
&VENT ID='travelling_fire_a_50', SURF_ID='MLR_FIRE', XB=10.8,11.8,46.2,47.2,3.82,3.82/ 
&VENT ID='travelling_fire_a_51', SURF_ID='MLR_FIRE', XB=11.8,12.8,46.2,47.2,3.82,3.82/ 
&VENT ID='travelling_fire_a_52', SURF_ID='MLR_FIRE', XB=12.8,13.8,46.2,47.2,3.82,3.82/ 
&VENT ID='travelling_fire_a_53', SURF_ID='MLR_FIRE', XB=13.8,14.8,46.2,47.2,3.82,3.82/ 
&VENT ID='travelling_fire_a_54', SURF_ID='MLR_FIRE', XB=14.8,15.8,46.2,47.2,3.82,3.82/ 
&VENT ID='travelling_fire_a_55', SURF_ID='MLR_FIRE', XB=15.8,16.8,46.2,47.2,3.82,3.82/ 
&VENT ID='travelling_fire_a_56', SURF_ID='MLR_FIRE', XB=16.8,17.8,46.2,47.2,3.82,3.82/ 
&VENT ID='travelling_fire_a_57', SURF_ID='MLR_FIRE', XB=17.8,18.8,46.2,47.2,3.82,3.82/ 
&VENT ID='travelling_fire_a_58', SURF_ID='MLR_FIRE', XB=18.8,19.8,46.2,47.2,3.82,3.82/ 
&VENT ID='travelling_fire_a_59', SURF_ID='MLR_FIRE', XB=19.8,20.8,46.2,47.2,3.82,3.82/ 
&VENT ID='travelling_fire_a_60', SURF_ID='MLR_FIRE', XB=0.8,1.8,45.2,46.2,3.82,3.82/ 
&VENT ID='travelling_fire_a_61', SURF_ID='MLR_FIRE', XB=1.8,2.8,45.2,46.2,3.82,3.82/ 
&VENT ID='travelling_fire_a_62', SURF_ID='MLR_FIRE', XB=2.8,3.8,45.2,46.2,3.82,3.82/ 
&VENT ID='travelling_fire_a_63', SURF_ID='MLR_FIRE', XB=3.8,4.8,45.2,46.2,3.82,3.82/ 
&VENT ID='travelling_fire_a_64', SURF_ID='MLR_FIRE', XB=4.8,5.8,45.2,46.2,3.82,3.82/ 
&VENT ID='travelling_fire_a_65', SURF_ID='MLR_FIRE', XB=5.8,6.8,45.2,46.2,3.82,3.82/ 
&VENT ID='travelling_fire_a_66', SURF_ID='MLR_FIRE', XB=6.8,7.8,45.2,46.2,3.82,3.82/ 
&VENT ID='travelling_fire_a_67', SURF_ID='MLR_FIRE', XB=7.8,8.8,45.2,46.2,3.82,3.82/ 
&VENT ID='travelling_fire_a_68', SURF_ID='MLR_FIRE', XB=8.8,9.8,45.2,46.2,3.82,3.82/ 
&VENT ID='travelling_fire_a_69', SURF_ID='MLR_FIRE', XB=9.8,10.8,45.2,46.2,3.82,3.82/ 
&VENT ID='travelling_fire_a_70', SURF_ID='MLR_FIRE', XB=10.8,11.8,45.2,46.2,3.82,3.82/ 
&VENT ID='travelling_fire_a_71', SURF_ID='MLR_FIRE', XB=11.8,12.8,45.2,46.2,3.82,3.82/ 
&VENT ID='travelling_fire_a_72', SURF_ID='MLR_FIRE', XB=12.8,13.8,45.2,46.2,3.82,3.82/ 
&VENT ID='travelling_fire_a_73', SURF_ID='MLR_FIRE', XB=13.8,14.8,45.2,46.2,3.82,3.82/ 
&VENT ID='travelling_fire_a_74', SURF_ID='MLR_FIRE', XB=14.8,15.8,45.2,46.2,3.82,3.82/ 
&VENT ID='travelling_fire_a_75', SURF_ID='MLR_FIRE', XB=15.8,16.8,45.2,46.2,3.82,3.82/ 
&VENT ID='travelling_fire_a_76', SURF_ID='MLR_FIRE', XB=16.8,17.8,45.2,46.2,3.82,3.82/ 
&VENT ID='travelling_fire_a_77', SURF_ID='MLR_FIRE', XB=17.8,18.8,45.2,46.2,3.82,3.82/ 
&VENT ID='travelling_fire_a_78', SURF_ID='MLR_FIRE', XB=18.8,19.8,45.2,46.2,3.82,3.82/ 
&VENT ID='travelling_fire_a_79', SURF_ID='MLR_FIRE', XB=19.8,20.8,45.2,46.2,3.82,3.82/ 
&VENT ID='travelling_fire_a_80', SURF_ID='MLR_FIRE', XB=0.8,1.8,44.2,45.2,3.82,3.82/ 
&VENT ID='travelling_fire_a_81', SURF_ID='MLR_FIRE', XB=1.8,2.8,44.2,45.2,3.82,3.82/ 
&VENT ID='travelling_fire_a_82', SURF_ID='MLR_FIRE', XB=2.8,3.8,44.2,45.2,3.82,3.82/ 
&VENT ID='travelling_fire_a_83', SURF_ID='MLR_FIRE', XB=3.8,4.8,44.2,45.2,3.82,3.82/ 
&VENT ID='travelling_fire_a_84', SURF_ID='MLR_FIRE', XB=4.8,5.8,44.2,45.2,3.82,3.82/ 
&VENT ID='travelling_fire_a_85', SURF_ID='MLR_FIRE', XB=5.8,6.8,44.2,45.2,3.82,3.82/ 
&VENT ID='travelling_fire_a_86', SURF_ID='MLR_FIRE', XB=6.8,7.8,44.2,45.2,3.82,3.82/ 
&VENT ID='travelling_fire_a_87', SURF_ID='MLR_FIRE', XB=7.8,8.8,44.2,45.2,3.82,3.82/ 
&VENT ID='travelling_fire_a_88', SURF_ID='MLR_FIRE', XB=8.8,9.8,44.2,45.2,3.82,3.82/ 
&VENT ID='travelling_fire_a_89', SURF_ID='MLR_FIRE', XB=9.8,10.8,44.2,45.2,3.82,3.82/ 
&VENT ID='travelling_fire_a_90', SURF_ID='MLR_FIRE', XB=10.8,11.8,44.2,45.2,3.82,3.82/ 
&VENT ID='travelling_fire_a_91', SURF_ID='MLR_FIRE', XB=11.8,12.8,44.2,45.2,3.82,3.82/ 
&VENT ID='travelling_fire_a_92', SURF_ID='MLR_FIRE', XB=12.8,13.8,44.2,45.2,3.82,3.82/ 
&VENT ID='travelling_fire_a_93', SURF_ID='MLR_FIRE', XB=13.8,14.8,44.2,45.2,3.82,3.82/ 
&VENT ID='travelling_fire_a_94', SURF_ID='MLR_FIRE', XB=14.8,15.8,44.2,45.2,3.82,3.82/ 
&VENT ID='travelling_fire_a_95', SURF_ID='MLR_FIRE', XB=15.8,16.8,44.2,45.2,3.82,3.82/ 
&VENT ID='travelling_fire_a_96', SURF_ID='MLR_FIRE', XB=16.8,17.8,44.2,45.2,3.82,3.82/ 
&VENT ID='travelling_fire_a_97', SURF_ID='MLR_FIRE', XB=17.8,18.8,44.2,45.2,3.82,3.82/ 
&VENT ID='travelling_fire_a_98', SURF_ID='MLR_FIRE', XB=18.8,19.8,44.2,45.2,3.82,3.82/ 
&VENT ID='travelling_fire_a_99', SURF_ID='MLR_FIRE', XB=19.8,20.8,44.2,45.2,3.82,3.82/ 
&VENT ID='travelling_fire_a_100', SURF_ID='MLR_FIRE', XB=0.8,1.8,43.2,44.2,3.82,3.82/ 
&VENT ID='travelling_fire_a_101', SURF_ID='MLR_FIRE', XB=1.8,2.8,43.2,44.2,3.82,3.82/ 
&VENT ID='travelling_fire_a_102', SURF_ID='MLR_FIRE', XB=2.8,3.8,43.2,44.2,3.82,3.82/ 
&VENT ID='travelling_fire_a_103', SURF_ID='MLR_FIRE', XB=3.8,4.8,43.2,44.2,3.82,3.82/ 
&VENT ID='travelling_fire_a_104', SURF_ID='MLR_FIRE', XB=4.8,5.8,43.2,44.2,3.82,3.82/ 
&VENT ID='travelling_fire_a_105', SURF_ID='MLR_FIRE', XB=5.8,6.8,43.2,44.2,3.82,3.82/ 
&VENT ID='travelling_fire_a_106', SURF_ID='MLR_FIRE', XB=6.8,7.8,43.2,44.2,3.82,3.82/ 
&VENT ID='travelling_fire_a_107', SURF_ID='MLR_FIRE', XB=7.8,8.8,43.2,44.2,3.82,3.82/ 
&VENT ID='travelling_fire_a_108', SURF_ID='MLR_FIRE', XB=8.8,9.8,43.2,44.2,3.82,3.82/ 
&VENT ID='travelling_fire_a_109', SURF_ID='MLR_FIRE', XB=9.8,10.8,43.2,44.2,3.82,3.82/ 
&VENT ID='travelling_fire_a_110', SURF_ID='MLR_FIRE', XB=10.8,11.8,43.2,44.2,3.82,3.82/ 
&VENT ID='travelling_fire_a_111', SURF_ID='MLR_FIRE', XB=11.8,12.8,43.2,44.2,3.82,3.82/ 
&VENT ID='travelling_fire_a_112', SURF_ID='MLR_FIRE', XB=12.8,13.8,43.2,44.2,3.82,3.82/ 
&VENT ID='travelling_fire_a_113', SURF_ID='MLR_FIRE', XB=13.8,14.8,43.2,44.2,3.82,3.82/ 
&VENT ID='travelling_fire_a_114', SURF_ID='MLR_FIRE', XB=14.8,15.8,43.2,44.2,3.82,3.82/ 
&VENT ID='travelling_fire_a_115', SURF_ID='MLR_FIRE', XB=15.8,16.8,43.2,44.2,3.82,3.82/ 
&VENT ID='travelling_fire_a_116', SURF_ID='MLR_FIRE', XB=16.8,17.8,43.2,44.2,3.82,3.82/ 
&VENT ID='travelling_fire_a_117', SURF_ID='MLR_FIRE', XB=17.8,18.8,43.2,44.2,3.82,3.82/ 
&VENT ID='travelling_fire_a_118', SURF_ID='MLR_FIRE', XB=18.8,19.8,43.2,44.2,3.82,3.82/ 
&VENT ID='travelling_fire_a_119', SURF_ID='MLR_FIRE', XB=19.8,20.8,43.2,44.2,3.82,3.82/ 
&VENT ID='travelling_fire_a_120', SURF_ID='MLR_FIRE', XB=0.8,1.8,42.2,43.2,3.82,3.82/ 
&VENT ID='travelling_fire_a_121', SURF_ID='MLR_FIRE', XB=1.8,2.8,42.2,43.2,3.82,3.82/ 
&VENT ID='travelling_fire_a_122', SURF_ID='MLR_FIRE', XB=2.8,3.8,42.2,43.2,3.82,3.82/ 
&VENT ID='travelling_fire_a_123', SURF_ID='MLR_FIRE', XB=3.8,4.8,42.2,43.2,3.82,3.82/ 
&VENT ID='travelling_fire_a_124', SURF_ID='MLR_FIRE', XB=4.8,5.8,42.2,43.2,3.82,3.82/ 
&VENT ID='travelling_fire_a_125', SURF_ID='MLR_FIRE', XB=5.8,6.8,42.2,43.2,3.82,3.82/ 
&VENT ID='travelling_fire_a_126', SURF_ID='MLR_FIRE', XB=6.8,7.8,42.2,43.2,3.82,3.82/ 
&VENT ID='travelling_fire_a_127', SURF_ID='MLR_FIRE', XB=7.8,8.8,42.2,43.2,3.82,3.82/ 
&VENT ID='travelling_fire_a_128', SURF_ID='MLR_FIRE', XB=8.8,9.8,42.2,43.2,3.82,3.82/ 
&VENT ID='travelling_fire_a_129', SURF_ID='MLR_FIRE', XB=9.8,10.8,42.2,43.2,3.82,3.82/ 
&VENT ID='travelling_fire_a_130', SURF_ID='MLR_FIRE', XB=10.8,11.8,42.2,43.2,3.82,3.82/ 
&VENT ID='travelling_fire_a_131', SURF_ID='MLR_FIRE', XB=11.8,12.8,42.2,43.2,3.82,3.82/ 
&VENT ID='travelling_fire_a_132', SURF_ID='MLR_FIRE', XB=12.8,13.8,42.2,43.2,3.82,3.82/ 
&VENT ID='travelling_fire_a_133', SURF_ID='MLR_FIRE', XB=13.8,14.8,42.2,43.2,3.82,3.82/ 
&VENT ID='travelling_fire_a_134', SURF_ID='MLR_FIRE', XB=14.8,15.8,42.2,43.2,3.82,3.82/ 
&VENT ID='travelling_fire_a_135', SURF_ID='MLR_FIRE', XB=15.8,16.8,42.2,43.2,3.82,3.82/ 
&VENT ID='travelling_fire_a_136', SURF_ID='MLR_FIRE', XB=16.8,17.8,42.2,43.2,3.82,3.82/ 
&VENT ID='travelling_fire_a_137', SURF_ID='MLR_FIRE', XB=17.8,18.8,42.2,43.2,3.82,3.82/ 
&VENT ID='travelling_fire_a_138', SURF_ID='MLR_FIRE', XB=18.8,19.8,42.2,43.2,3.82,3.82/ 
&VENT ID='travelling_fire_a_139', SURF_ID='MLR_FIRE', XB=19.8,20.8,42.2,43.2,3.82,3.82/ 
&VENT ID='travelling_fire_a_140', SURF_ID='MLR_FIRE', XB=0.8,1.8,41.2,42.2,3.82,3.82/ 
&VENT ID='travelling_fire_a_141', SURF_ID='MLR_FIRE', XB=1.8,2.8,41.2,42.2,3.82,3.82/ 
&VENT ID='travelling_fire_a_142', SURF_ID='MLR_FIRE', XB=2.8,3.8,41.2,42.2,3.82,3.82/ 
&VENT ID='travelling_fire_a_143', SURF_ID='MLR_FIRE', XB=3.8,4.8,41.2,42.2,3.82,3.82/ 
&VENT ID='travelling_fire_a_144', SURF_ID='MLR_FIRE', XB=4.8,5.8,41.2,42.2,3.82,3.82/ 
&VENT ID='travelling_fire_a_145', SURF_ID='MLR_FIRE', XB=5.8,6.8,41.2,42.2,3.82,3.82/ 
&VENT ID='travelling_fire_a_146', SURF_ID='MLR_FIRE', XB=6.8,7.8,41.2,42.2,3.82,3.82/ 
&VENT ID='travelling_fire_a_147', SURF_ID='MLR_FIRE', XB=7.8,8.8,41.2,42.2,3.82,3.82/ 
&VENT ID='travelling_fire_a_148', SURF_ID='MLR_FIRE', XB=8.8,9.8,41.2,42.2,3.82,3.82/ 
&VENT ID='travelling_fire_a_149', SURF_ID='MLR_FIRE', XB=9.8,10.8,41.2,42.2,3.82,3.82/ 
&VENT ID='travelling_fire_a_150', SURF_ID='MLR_FIRE', XB=10.8,11.8,41.2,42.2,3.82,3.82/ 
&VENT ID='travelling_fire_a_151', SURF_ID='MLR_FIRE', XB=11.8,12.8,41.2,42.2,3.82,3.82/ 
&VENT ID='travelling_fire_a_152', SURF_ID='MLR_FIRE', XB=12.8,13.8,41.2,42.2,3.82,3.82/ 
&VENT ID='travelling_fire_a_153', SURF_ID='MLR_FIRE', XB=13.8,14.8,41.2,42.2,3.82,3.82/ 
&VENT ID='travelling_fire_a_154', SURF_ID='MLR_FIRE', XB=14.8,15.8,41.2,42.2,3.82,3.82/ 
&VENT ID='travelling_fire_a_155', SURF_ID='MLR_FIRE', XB=15.8,16.8,41.2,42.2,3.82,3.82/ 
&VENT ID='travelling_fire_a_156', SURF_ID='MLR_FIRE', XB=16.8,17.8,41.2,42.2,3.82,3.82/ 
&VENT ID='travelling_fire_a_157', SURF_ID='MLR_FIRE', XB=17.8,18.8,41.2,42.2,3.82,3.82/ 
&VENT ID='travelling_fire_a_158', SURF_ID='MLR_FIRE', XB=18.8,19.8,41.2,42.2,3.82,3.82/ 
&VENT ID='travelling_fire_a_159', SURF_ID='MLR_FIRE', XB=19.8,20.8,41.2,42.2,3.82,3.82/ 
&VENT ID='travelling_fire_a_160', SURF_ID='MLR_FIRE', XB=0.8,1.8,40.2,41.2,3.82,3.82/ 
&VENT ID='travelling_fire_a_161', SURF_ID='MLR_FIRE', XB=1.8,2.8,40.2,41.2,3.82,3.82/ 
&VENT ID='travelling_fire_a_162', SURF_ID='MLR_FIRE', XB=2.8,3.8,40.2,41.2,3.82,3.82/ 
&VENT ID='travelling_fire_a_163', SURF_ID='MLR_FIRE', XB=3.8,4.8,40.2,41.2,3.82,3.82/ 
&VENT ID='travelling_fire_a_164', SURF_ID='MLR_FIRE', XB=4.8,5.8,40.2,41.2,3.82,3.82/ 
&VENT ID='travelling_fire_a_165', SURF_ID='MLR_FIRE', XB=5.8,6.8,40.2,41.2,3.82,3.82/ 
&VENT ID='travelling_fire_a_166', SURF_ID='MLR_FIRE', XB=6.8,7.8,40.2,41.2,3.82,3.82/ 
&VENT ID='travelling_fire_a_167', SURF_ID='MLR_FIRE', XB=7.8,8.8,40.2,41.2,3.82,3.82/ 
&VENT ID='travelling_fire_a_168', SURF_ID='MLR_FIRE', XB=8.8,9.8,40.2,41.2,3.82,3.82/ 
&VENT ID='travelling_fire_a_169', SURF_ID='MLR_FIRE', XB=9.8,10.8,40.2,41.2,3.82,3.82/ 
&VENT ID='travelling_fire_a_170', SURF_ID='MLR_FIRE', XB=10.8,11.8,40.2,41.2,3.82,3.82/ 
&VENT ID='travelling_fire_a_171', SURF_ID='MLR_FIRE', XB=11.8,12.8,40.2,41.2,3.82,3.82/ 
&VENT ID='travelling_fire_a_172', SURF_ID='MLR_FIRE', XB=12.8,13.8,40.2,41.2,3.82,3.82/ 
&VENT ID='travelling_fire_a_173', SURF_ID='MLR_FIRE', XB=13.8,14.8,40.2,41.2,3.82,3.82/ 
&VENT ID='travelling_fire_a_174', SURF_ID='MLR_FIRE', XB=14.8,15.8,40.2,41.2,3.82,3.82/ 
&VENT ID='travelling_fire_a_175', SURF_ID='MLR_FIRE', XB=15.8,16.8,40.2,41.2,3.82,3.82/ 
&VENT ID='travelling_fire_a_176', SURF_ID='MLR_FIRE', XB=16.8,17.8,40.2,41.2,3.82,3.82/ 
&VENT ID='travelling_fire_a_177', SURF_ID='MLR_FIRE', XB=17.8,18.8,40.2,41.2,3.82,3.82/ 
&VENT ID='travelling_fire_a_178', SURF_ID='MLR_FIRE', XB=18.8,19.8,40.2,41.2,3.82,3.82/ 
&VENT ID='travelling_fire_a_179', SURF_ID='MLR_FIRE', XB=19.8,20.8,40.2,41.2,3.82,3.82/ 
&VENT ID='travelling_fire_a_180', SURF_ID='MLR_FIRE', XB=0.8,1.8,39.2,40.2,3.82,3.82/ 
&VENT ID='travelling_fire_a_181', SURF_ID='MLR_FIRE', XB=1.8,2.8,39.2,40.2,3.82,3.82/ 
&VENT ID='travelling_fire_a_182', SURF_ID='MLR_FIRE', XB=2.8,3.8,39.2,40.2,3.82,3.82/ 
&VENT ID='travelling_fire_a_183', SURF_ID='MLR_FIRE', XB=3.8,4.8,39.2,40.2,3.82,3.82/ 
&VENT ID='travelling_fire_a_184', SURF_ID='MLR_FIRE', XB=4.8,5.8,39.2,40.2,3.82,3.82/ 
&VENT ID='travelling_fire_a_185', SURF_ID='MLR_FIRE', XB=5.8,6.8,39.2,40.2,3.82,3.82/ 
&VENT ID='travelling_fire_a_186', SURF_ID='MLR_FIRE', XB=6.8,7.8,39.2,40.2,3.82,3.82/ 
&VENT ID='travelling_fire_a_187', SURF_ID='MLR_FIRE', XB=7.8,8.8,39.2,40.2,3.82,3.82/ 
&VENT ID='travelling_fire_a_188', SURF_ID='MLR_FIRE', XB=8.8,9.8,39.2,40.2,3.82,3.82/ 
&VENT ID='travelling_fire_a_189', SURF_ID='MLR_FIRE', XB=9.8,10.8,39.2,40.2,3.82,3.82/ 
&VENT ID='travelling_fire_a_190', SURF_ID='MLR_FIRE', XB=10.8,11.8,39.2,40.2,3.82,3.82/ 
&VENT ID='travelling_fire_a_191', SURF_ID='MLR_FIRE', XB=11.8,12.8,39.2,40.2,3.82,3.82/ 
&VENT ID='travelling_fire_a_192', SURF_ID='MLR_FIRE', XB=12.8,13.8,39.2,40.2,3.82,3.82/ 
&VENT ID='travelling_fire_a_193', SURF_ID='MLR_FIRE', XB=13.8,14.8,39.2,40.2,3.82,3.82/ 
&VENT ID='travelling_fire_a_194', SURF_ID='MLR_FIRE', XB=14.8,15.8,39.2,40.2,3.82,3.82/ 
&VENT ID='travelling_fire_a_195', SURF_ID='MLR_FIRE', XB=15.8,16.8,39.2,40.2,3.82,3.82/ 
&VENT ID='travelling_fire_a_196', SURF_ID='MLR_FIRE', XB=16.8,17.8,39.2,40.2,3.82,3.82/ 
&VENT ID='travelling_fire_a_197', SURF_ID='MLR_FIRE', XB=17.8,18.8,39.2,40.2,3.82,3.82/ 
&VENT ID='travelling_fire_a_198', SURF_ID='MLR_FIRE', XB=18.8,19.8,39.2,40.2,3.82,3.82/ 
&VENT ID='travelling_fire_a_199', SURF_ID='MLR_FIRE', XB=19.8,20.8,39.2,40.2,3.82,3.82/ 
&VENT ID='travelling_fire_a_200', SURF_ID='MLR_FIRE', XB=0.8,1.8,38.2,39.2,3.82,3.82/ 
&VENT ID='travelling_fire_a_201', SURF_ID='MLR_FIRE', XB=1.8,2.8,38.2,39.2,3.82,3.82/ 
&VENT ID='travelling_fire_a_202', SURF_ID='MLR_FIRE', XB=2.8,3.8,38.2,39.2,3.82,3.82/ 
&VENT ID='travelling_fire_a_203', SURF_ID='MLR_FIRE', XB=3.8,4.8,38.2,39.2,3.82,3.82/ 
&VENT ID='travelling_fire_a_204', SURF_ID='MLR_FIRE', XB=4.8,5.8,38.2,39.2,3.82,3.82/ 
&VENT ID='travelling_fire_a_205', SURF_ID='MLR_FIRE', XB=5.8,6.8,38.2,39.2,3.82,3.82/ 
&VENT ID='travelling_fire_a_206', SURF_ID='MLR_FIRE', XB=6.8,7.8,38.2,39.2,3.82,3.82/ 
&VENT ID='travelling_fire_a_207', SURF_ID='MLR_FIRE', XB=7.8,8.8,38.2,39.2,3.82,3.82/ 
&VENT ID='travelling_fire_a_208', SURF_ID='MLR_FIRE', XB=8.8,9.8,38.2,39.2,3.82,3.82/ 