moe2.fds
Generated by PyroSim - Version 2019.1.0515
25-Aug-2019 00:20:06

&HEAD CHID='moe2'/
&TIME T_END=400.0, RESTRICT_TIME_STEP=.FALSE./
&DUMP RENDER_FILE='moe2.ge1', COLUMN_DUMP_LIMIT=.TRUE., DT_BNDF=1.0, DT_DEVC=1.0, DT_HRR=1.0, DT_ISOF=1.0, DT_PART=1.0, DT_PROF=1.0, DT_SLCF=1.0, DT_SL3D=1.0/

&MESH ID='stair upper02', IJK=7,15,82, XB=4.2,4.9,-22.0,-20.5,11.1,19.3, MPI_PROCESS=0/
&MESH ID='corridor 1', IJK=19,8,27, XB=20.2,22.1,-22.9,-22.1,8.4,11.1, MPI_PROCESS=0/
&MESH ID='corridor', IJK=243,17,27, XB=4.2,28.5,-22.1,-20.4,8.4,11.1, MPI_PROCESS=0/
&MESH ID='flat 2', IJK=38,86,27, XB=24.7,28.5,-20.4,-11.8,8.4,11.1, MPI_PROCESS=1/
&MESH ID='stair', IJK=35,59,27, XB=0.7,4.2,-22.7,-16.8,8.4,11.1, MPI_PROCESS=2/
&MESH ID='lobby 1', IJK=26,6,27, XB=4.2,6.8,-22.7,-22.1,8.4,11.1, MPI_PROCESS=2/
&MESH ID='lobby 2', IJK=42,26,27, XB=2.6,6.8,-25.3,-22.7,8.4,11.1, MPI_PROCESS=2/
&MESH ID='lobby 3', IJK=19,59,27, XB=2.4,4.3,-31.2,-25.3,8.4,11.1, MPI_PROCESS=2/
&MESH ID='stair upper', IJK=35,59,57, XB=0.7,4.2,-22.7,-16.8,13.6,19.3, MPI_PROCESS=3/
&MESH ID='stair lower', IJK=35,59,38, XB=0.7,4.2,-22.7,-16.8,4.6,8.4, MPI_PROCESS=4/
&MESH ID='stair upper01', IJK=35,59,25, XB=0.7,4.2,-22.7,-16.8,11.1,13.6, MPI_PROCESS=4/


&PART ID='Tracer',
      MASSLESS=.TRUE.,
      MONODISPERSE=.TRUE.,
      AGE=60.0/

&REAC ID='POLYURETHANE',
      FYI='NFPA Babrauskas',
      FUEL='REAC_FUEL',
      C=6.3,
      H=7.1,
      O=2.1,
      N=1.0,
      SOOT_YIELD=0.1,
      HEAT_OF_COMBUSTION=2.0E4/

&RAMP ID='ventilation_RAMP', T=-0.25, F=1.0/
&RAMP ID='ventilation_RAMP', T=0.25, F=-1.0/
&RAMP ID='ventilation_RAMP', T=239.75, F=-1.0/
&RAMP ID='ventilation_RAMP', T=240.25, F=1.0/
&RAMP ID='door_RAMP', T=-0.25, F=1.0/
&RAMP ID='door_RAMP', T=0.25, F=-1.0/
&RAMP ID='door_RAMP', T=239.75, F=-1.0/
&RAMP ID='door_RAMP', T=240.25, F=1.0/
&RAMP ID='doorflat_RAMP', T=-0.25, F=1.0/
&RAMP ID='doorflat_RAMP', T=0.25, F=-1.0/
&RAMP ID='doorflat_RAMP', T=239.75, F=-1.0/
&RAMP ID='doorflat_RAMP', T=240.25, F=1.0/
&RAMP ID='doorflat_RAMP', T=259.75, F=1.0/
&RAMP ID='doorflat_RAMP', T=260.25, F=-1.0/
&CTRL ID='ventilation', FUNCTION_TYPE='CUSTOM', RAMP_ID='ventilation_RAMP', LATCH=.FALSE., INPUT_ID='TIME'/
&CTRL ID='invert', FUNCTION_TYPE='ALL', LATCH=.FALSE., INITIAL_STATE=.TRUE., INPUT_ID='ventilation'/
&CTRL ID='invert2', FUNCTION_TYPE='ALL', LATCH=.FALSE., INITIAL_STATE=.TRUE., INPUT_ID='door'/
&CTRL ID='door', FUNCTION_TYPE='CUSTOM', RAMP_ID='door_RAMP', LATCH=.FALSE., INPUT_ID='TIME'/
&CTRL ID='invert3', FUNCTION_TYPE='ALL', LATCH=.FALSE., INITIAL_STATE=.TRUE., INPUT_ID='doorflat'/
&CTRL ID='doorflat', FUNCTION_TYPE='CUSTOM', RAMP_ID='doorflat_RAMP', LATCH=.FALSE., INPUT_ID='TIME'/
&DEVC ID='FLOW + fire_origin_window', QUANTITY='VOLUME FLOW +', XB=24.8,28.4,-12.7,-12.7,8.5,9.2/
&DEVC ID='FLOW - fire_origin_window', QUANTITY='VOLUME FLOW -', XB=24.8,28.4,-12.7,-12.7,8.5,9.2/
&DEVC ID='FLOW + fire_origin_door', QUANTITY='VOLUME FLOW +', XB=27.5,28.3,-20.4,-20.4,8.5,10.5/
&DEVC ID='FLOW - fire_origin_door', QUANTITY='VOLUME FLOW -', XB=27.5,28.3,-20.4,-20.4,8.5,10.5/
&DEVC ID='FLOW + aov_stair_top', QUANTITY='VOLUME FLOW +', XB=1.8,3.0,-20.3,-19.1,18.4,18.4/
&DEVC ID='FLOW - aov_stair_top', QUANTITY='VOLUME FLOW -', XB=1.8,3.0,-20.3,-19.1,18.4,18.4/
&DEVC ID='FLOW + stair_lobby_door', QUANTITY='VOLUME FLOW +', XB=5.1,6.7,-22.1,-22.1,8.5,10.5/
&DEVC ID='FLOW - stair_lobby_door', QUANTITY='VOLUME FLOW -', XB=5.1,6.7,-22.1,-22.1,8.5,10.5/
&DEVC ID='FLOW + vent_1', QUANTITY='VOLUME FLOW +', XB=4.9,4.9,-21.8,-20.6,10.0,10.4/
&DEVC ID='FLOW - vent_1', QUANTITY='VOLUME FLOW -', XB=4.9,4.9,-21.8,-20.6,10.0,10.4/
&DEVC ID='FLOW - vent_2', QUANTITY='VOLUME FLOW -', XB=28.4,28.4,-21.8,-20.8,9.9,10.9/
&DEVC ID='FLOW + vent_2', QUANTITY='VOLUME FLOW +', XB=28.4,28.4,-21.8,-20.8,9.9,10.9/
&DEVC ID='FLOW + stair_door', QUANTITY='VOLUME FLOW +', XB=2.7,4.3,-22.7,-22.7,8.5,10.5/
&DEVC ID='FLOW - stair_door', QUANTITY='VOLUME FLOW -', XB=2.7,4.3,-22.7,-22.7,8.5,10.5/
&DEVC ID='TIME', QUANTITY='TIME', XYZ=4.2,-22.0,11.1/

&MATL ID='CONCRETE',
      FYI='NBSIR 88-3752 - ATF NIST Multi-Floor Validation',
      SPECIFIC_HEAT=1.04,
      CONDUCTIVITY=1.8,
      DENSITY=2280.0/
&MATL ID='GYPSUM',
      FYI='NA',
      SPECIFIC_HEAT=0.84,
      CONDUCTIVITY=0.48,
      DENSITY=1440.0/

&SURF ID='LINING CONCRETE',
      COLOR='GRAY 80',
      BACKING='VOID',
      MATL_ID(1,1)='CONCRETE',
      MATL_MASS_FRACTION(1,1)=1.0,
      THICKNESS(1)=0.2/
&SURF ID='LINING PLASTER_BOARD',
      COLOR='GRAY 80',
      BACKING='VOID',
      MATL_ID(1,1)='GYPSUM',
      MATL_MASS_FRACTION(1,1)=1.0,
      THICKNESS(1)=0.02/
&SURF ID='VENT EXHAUST 5',
      RGB=51,153,0,
      VOLUME_FLOW=5.0,
      TAU_V=-30.0/
&SURF ID='BURNER 1MW 1.2m',
      COLOR='RED',
      HRRPUA=510.0,
      TAU_Q=-288.0,
      PART_ID='Tracer',
      DT_INSERT=0.5/

&OBST ID='fire 1.25MW 1.4m', XB=26.0,27.4,-15.8,-14.4,8.5,8.6, SURF_IDS='BURNER 1MW 1.2m','INERT','INERT'/ 
&OBST ID='stair floor_i', XB=0.8,4.1,-22.6,-20.8,15.1,15.4, SURF_ID='LINING PLASTER_BOARD'/ 
&OBST ID='stair floor_i', XB=0.8,4.1,-22.6,-20.8,11.9,12.2, SURF_ID='LINING PLASTER_BOARD'/ 
&OBST ID='stair floor_i', XB=0.8,4.1,-22.6,-20.8,8.3,8.5, SURF_ID='LINING PLASTER_BOARD'/ 
&OBST ID='stair floor_i', XB=0.6,4.1,-18.3,-16.9,16.7,17.0, SURF_ID='LINING PLASTER_BOARD'/ 
&OBST ID='stair floor_i', XB=0.6,4.1,-18.3,-16.9,13.5,13.8, SURF_ID='LINING PLASTER_BOARD'/ 
&OBST ID='stair floor_i', XB=0.6,4.1,-18.3,-16.9,10.1,10.4, SURF_ID='LINING PLASTER_BOARD'/ 
&OBST ID='stair floor_i', XB=0.6,4.1,-18.3,-16.9,6.4,6.7, SURF_ID='LINING PLASTER_BOARD'/ 
&OBST ID='stair floor', XB=0.8,4.1,-22.6,-16.9,3.7,4.9, SURF_ID='LINING PLASTER_BOARD'/ 
&OBST ID='stair_lobby floor', XB=2.5,4.2,-22.7,-22.6,8.4,8.5, SURF_ID='LINING CONCRETE'/ 
&OBST ID='stair_lobby floor', XB=4.1,4.2,-22.6,-22.1,8.4,8.5, SURF_ID='LINING CONCRETE'/ 
&OBST ID='stair_lobby floor', XB=4.2,6.8,-22.7,-22.1,8.4,8.5, SURF_ID='LINING CONCRETE'/ 
&OBST ID='stair_lobby floor', XB=2.6,6.8,-25.3,-22.7,8.4,8.5, SURF_ID='LINING CONCRETE'/ 
&OBST ID='stair_lobby floor', XB=2.4,4.3,-31.2,-25.3,8.4,8.5, SURF_ID='LINING CONCRETE'/ 
&OBST ID='stair_lobby floor', XB=2.5,4.2,-22.7,-22.6,7.3,8.4, SURF_ID='LINING CONCRETE'/ 
&OBST ID='stair_lobby floor', XB=4.1,4.2,-22.6,-22.1,7.3,8.4, SURF_ID='LINING CONCRETE'/ 
&OBST ID='stair_lobby soffit', XB=4.2,6.8,-22.1,-22.0,11.0,11.1, COLOR='INVISIBLE', SURF_ID='LINING CONCRETE'/ 
&OBST ID='stair_lobby soffit', XB=2.6,4.2,-22.7,-22.6,11.0,11.1, COLOR='INVISIBLE', SURF_ID='LINING CONCRETE'/ 
&OBST ID='stair_lobby soffit', XB=4.1,4.2,-22.6,-22.0,11.0,11.1, COLOR='INVISIBLE', SURF_ID='LINING CONCRETE'/ 
&OBST ID='stair_lobby soffit', XB=4.2,6.8,-22.7,-22.1,11.0,11.1, COLOR='INVISIBLE', SURF_ID='LINING CONCRETE'/ 
&OBST ID='stair_lobby soffit', XB=2.6,6.8,-25.3,-22.7,11.0,11.1, COLOR='INVISIBLE', SURF_ID='LINING CONCRETE'/ 
&OBST ID='stair_lobby soffit', XB=2.4,4.3,-31.2,-25.3,11.0,11.1, COLOR='INVISIBLE', SURF_ID='LINING CONCRETE'/ 
&OBST ID='stair_lobby soffit', XB=2.6,4.2,-22.7,-22.6,11.1,12.2, COLOR='INVISIBLE', SURF_ID='LINING CONCRETE'/ 
&OBST ID='stair_lobby soffit', XB=4.1,4.2,-22.6,-22.0,11.1,12.2, COLOR='INVISIBLE', SURF_ID='LINING CONCRETE'/ 
&OBST ID='corridor floor', XB=20.2,22.1,-22.9,-22.1,8.4,8.5, SURF_ID='LINING CONCRETE'/ 
&OBST ID='corridor floor', XB=4.2,28.5,-22.1,-20.4,8.4,8.5, SURF_ID='LINING CONCRETE'/ 
&OBST ID='corridor floor', XB=24.7,28.5,-20.4,-20.3,8.4,8.5, SURF_ID='LINING CONCRETE'/ 
&OBST ID='corridor floor', XB=4.1,4.2,-22.2,-20.3,8.4,8.5, SURF_ID='LINING CONCRETE'/ 
&OBST ID='corridor floor', XB=4.2,6.8,-22.2,-22.1,8.4,8.5, SURF_ID='LINING CONCRETE'/ 
&OBST ID='corridor floor', XB=4.1,4.2,-22.2,-20.3,7.3,8.4, SURF_ID='LINING CONCRETE'/ 
&OBST ID='flat floor', XB=24.7,28.5,-20.4,-12.6,8.4,8.5, SURF_ID='LINING CONCRETE'/ 
&OBST ID='flat soffit', XB=24.7,28.5,-20.3,-12.6,11.0,11.1, COLOR='INVISIBLE', SURF_ID='LINING CONCRETE'/ 
&OBST ID='flat wall', XB=24.7,24.8,-20.3,-12.8,8.5,11.0, SURF_ID='LINING PLASTER_BOARD'/ 
&OBST ID='flat wall', XB=24.7,28.5,-12.8,-12.6,8.5,11.0, SURF_ID='LINING PLASTER_BOARD'/ 
&OBST ID='flat wall', XB=28.4,28.5,-20.3,-12.8,8.5,11.0, SURF_ID='LINING PLASTER_BOARD'/ 
&OBST ID='stair_lobby wall', XB=6.6,6.8,-22.7,-22.2,8.5,11.0, SURF_ID='LINING PLASTER_BOARD'/ 
&OBST ID='stair_lobby wall', XB=2.6,2.7,-25.3,-22.8,8.5,11.0, SURF_ID='LINING PLASTER_BOARD'/ 
&OBST ID='stair_lobby wall', XB=4.2,6.8,-25.3,-25.2,8.5,11.0, SURF_ID='LINING PLASTER_BOARD'/ 
&OBST ID='stair_lobby wall', XB=6.6,6.8,-25.2,-22.7,8.5,11.0, SURF_ID='LINING PLASTER_BOARD'/ 
&OBST ID='stair_lobby wall', XB=2.4,2.5,-31.1,-25.5,8.5,11.0, SURF_ID='LINING PLASTER_BOARD'/ 
&OBST ID='stair_lobby wall', XB=2.4,2.7,-25.5,-25.3,8.5,11.0, SURF_ID='LINING PLASTER_BOARD'/ 
&OBST ID='stair_lobby wall', XB=2.4,4.3,-31.2,-31.1,8.5,11.0, SURF_ID='LINING PLASTER_BOARD'/ 
&OBST ID='stair_lobby wall', XB=4.2,4.3,-31.1,-25.3,8.5,11.0, SURF_ID='LINING PLASTER_BOARD'/ 
&OBST ID='stair steps', XB=0.8,2.4,-20.7,-20.6,15.2,15.5, SURF_ID='LINING PLASTER_BOARD'/ 
&OBST ID='stair steps', XB=0.8,2.4,-20.6,-20.5,15.2,15.6, SURF_ID='LINING PLASTER_BOARD'/ 
&OBST ID='stair steps', XB=0.8,2.4,-20.8,-20.7,15.3,15.4, SURF_ID='LINING PLASTER_BOARD'/ 
&OBST ID='stair steps', XB=0.8,2.4,-20.5,-20.4,15.3,15.6, SURF_ID='LINING PLASTER_BOARD'/ 
&OBST ID='stair steps', XB=0.8,2.4,-20.4,-20.3,15.3,15.7, SURF_ID='LINING PLASTER_BOARD'/ 
&OBST ID='stair steps', XB=0.8,2.4,-20.3,-20.2,15.4,15.8, SURF_ID='LINING PLASTER_BOARD'/ 
&OBST ID='stair steps', XB=0.8,2.4,-20.2,-20.1,15.5,15.8, SURF_ID='LINING PLASTER_BOARD'/ 
&OBST ID='stair steps', XB=0.8,2.4,-20.1,-20.0,15.5,15.9, SURF_ID='LINING PLASTER_BOARD'/ 
&OBST ID='stair steps', XB=0.8,2.4,-20.0,-19.9,15.6,15.9, SURF_ID='LINING PLASTER_BOARD'/ 
&OBST ID='stair steps', XB=0.8,2.4,-19.9,-19.8,15.7,16.0, SURF_ID='LINING PLASTER_BOARD'/ 
&OBST ID='stair steps', XB=0.8,2.4,-19.8,-19.7,15.7,16.1, SURF_ID='LINING PLASTER_BOARD'/ 
&OBST ID='stair steps', XB=0.8,2.4,-19.7,-19.6,15.8,16.1, SURF_ID='LINING PLASTER_BOARD'/ 
&OBST ID='stair steps', XB=0.8,2.4,-19.6,-19.5,15.8,16.2, SURF_ID='LINING PLASTER_BOARD'/ 
&OBST ID='stair steps', XB=0.8,2.4,-19.5,-19.4,15.9,16.3, SURF_ID='LINING PLASTER_BOARD'/ 
&OBST ID='stair steps', XB=0.8,2.4,-19.4,-19.3,16.0,16.3, SURF_ID='LINING PLASTER_BOARD'/ 
&OBST ID='stair steps', XB=0.8,2.4,-19.3,-19.2,16.0,16.4, SURF_ID='LINING PLASTER_BOARD'/ 
&OBST ID='stair steps', XB=0.8,2.4,-19.2,-19.1,16.1,16.5, SURF_ID='LINING PLASTER_BOARD'/ 
&OBST ID='stair steps', XB=0.8,2.4,-19.1,-19.0,16.2,16.5, SURF_ID='LINING PLASTER_BOARD'/ 
&OBST ID='stair steps', XB=0.8,2.4,-19.0,-18.9,16.2,16.6, SURF_ID='LINING PLASTER_BOARD'/ 
&OBST ID='stair steps', XB=0.8,2.4,-18.9,-18.8,16.3,16.6, SURF_ID='LINING PLASTER_BOARD'/ 
&OBST ID='stair steps', XB=0.8,2.4,-18.8,-18.7,16.4,16.7, SURF_ID='LINING PLASTER_BOARD'/ 
&OBST ID='stair steps', XB=0.8,2.4,-18.7,-18.6,16.4,16.8, SURF_ID='LINING PLASTER_BOARD'/ 
&OBST ID='stair steps', XB=0.8,2.4,-18.6,-18.5,16.5,16.8, SURF_ID='LINING PLASTER_BOARD'/ 
&OBST ID='stair steps', XB=0.8,2.4,-18.5,-18.4,16.5,16.9, SURF_ID='LINING PLASTER_BOARD'/ 
&OBST ID='stair steps', XB=0.8,2.4,-18.4,-18.3,16.6,17.0, SURF_ID='LINING PLASTER_BOARD'/ 
&OBST ID='stair steps', XB=0.8,2.4,-18.2,-18.1,16.7,16.8, SURF_ID='LINING PLASTER_BOARD'/ 
&OBST ID='stair steps', XB=0.8,2.4,-18.3,-18.2,16.7,16.9, SURF_ID='LINING PLASTER_BOARD'/ 
&OBST ID='stair steps', XB=0.8,2.4,-20.6,-20.6,15.1,15.2, SURF_ID='LINING PLASTER_BOARD'/ 
&OBST ID='stair steps', XB=0.8,2.4,-18.5,-18.4,13.6,13.7, SURF_ID='LINING PLASTER_BOARD'/ 
&OBST ID='stair steps', XB=0.8,2.4,-18.3,-18.2,13.6,13.7, SURF_ID='LINING PLASTER_BOARD'/ 
&OBST ID='stair steps', XB=0.8,2.4,-18.4,-18.3,13.6,13.8, SURF_ID='LINING PLASTER_BOARD'/ 
&OBST ID='stair steps', XB=0.8,2.4,-18.6,-18.5,13.6,13.6, SURF_ID='LINING PLASTER_BOARD'/ 
&OBST ID='stair steps', XB=0.8,2.4,-20.7,-20.6,12.0,12.3, SURF_ID='LINING PLASTER_BOARD'/ 
&OBST ID='stair steps', XB=0.8,2.4,-20.6,-20.5,12.0,12.4, SURF_ID='LINING PLASTER_BOARD'/ 
&OBST ID='stair steps', XB=0.8,2.4,-20.8,-20.7,12.1,12.2, SURF_ID='LINING PLASTER_BOARD'/ 
&OBST ID='stair steps', XB=0.8,2.4,-20.5,-20.4,12.1,12.4, SURF_ID='LINING PLASTER_BOARD'/ 
&OBST ID='stair steps', XB=0.8,2.4,-20.4,-20.3,12.1,12.5, SURF_ID='LINING PLASTER_BOARD'/ 
&OBST ID='stair steps', XB=0.8,2.4,-20.3,-20.2,12.2,12.6, SURF_ID='LINING PLASTER_BOARD'/ 
&OBST ID='stair steps', XB=0.8,2.4,-20.2,-20.1,12.3,12.6, SURF_ID='LINING PLASTER_BOARD'/ 
&OBST ID='stair steps', XB=0.8,2.4,-20.1,-20.0,12.3,12.7, SURF_ID='LINING PLASTER_BOARD'/ 
&OBST ID='stair steps', XB=0.8,2.4,-20.0,-19.9,12.4,12.7, SURF_ID='LINING PLASTER_BOARD'/ 
&OBST ID='stair steps', XB=0.8,2.4,-19.9,-19.8,12.5,12.8, SURF_ID='LINING PLASTER_BOARD'/ 
&OBST ID='stair steps', XB=0.8,2.4,-19.8,-19.7,12.5,12.9, SURF_ID='LINING PLASTER_BOARD'/ 
&OBST ID='stair steps', XB=0.8,2.4,-19.7,-19.6,12.6,12.9, SURF_ID='LINING PLASTER_BOARD'/ 
&OBST ID='stair steps', XB=0.8,2.4,-19.6,-19.5,12.6,13.0, SURF_ID='LINING PLASTER_BOARD'/ 
&OBST ID='stair steps', XB=0.8,2.4,-19.5,-19.4,12.7,13.1, SURF_ID='LINING PLASTER_BOARD'/ 
&OBST ID='stair steps', XB=0.8,2.4,-19.4,-19.3,12.8,13.1, SURF_ID='LINING PLASTER_BOARD'/ 
&OBST ID='stair steps', XB=0.8,2.4,-19.3,-19.2,12.8,13.2, SURF_ID='LINING PLASTER_BOARD'/ 
&OBST ID='stair steps', XB=0.8,2.4,-19.2,-19.1,12.9,13.3, SURF_ID='LINING PLASTER_BOARD'/ 
&OBST ID='stair steps', XB=0.8,2.4,-19.1,-19.0,13.0,13.3, SURF_ID='LINING PLASTER_BOARD'/ 
&OBST ID='stair steps', XB=0.8,2.4,-19.0,-18.9,13.0,13.4, SURF_ID='LINING PLASTER_BOARD'/ 
&OBST ID='stair steps', XB=0.8,2.4,-18.9,-18.8,13.1,13.4, SURF_ID='LINING PLASTER_BOARD'/ 
&OBST ID='stair steps', XB=0.8,2.4,-18.8,-18.7,13.2,13.5, SURF_ID='LINING PLASTER_BOARD'/ 
&OBST ID='stair steps', XB=0.8,2.4,-18.7,-18.6,13.2,13.6, SURF_ID='LINING PLASTER_BOARD'/ 
&OBST ID='stair steps', XB=0.8,2.4,-18.6,-18.4,13.3,13.6, SURF_ID='LINING PLASTER_BOARD'/ 
&OBST ID='stair steps', XB=0.8,2.4,-18.4,-18.3,13.4,13.6, SURF_ID='LINING PLASTER_BOARD'/ 
&OBST ID='stair steps', XB=0.8,2.4,-18.3,-18.1,13.5,13.6, SURF_ID='LINING PLASTER_BOARD'/ 
&OBST ID='stair steps', XB=0.8,2.4,-20.6,-20.6,11.9,12.0, SURF_ID='LINING PLASTER_BOARD'/ 
&OBST ID='stair steps', XB=0.8,2.4,-20.8,-20.7,8.4,8.5, SURF_ID='LINING PLASTER_BOARD'/ 
&OBST ID='stair steps', XB=0.8,2.4,-20.7,-20.6,8.4,8.6, SURF_ID='LINING PLASTER_BOARD'/ 
&OBST ID='stair steps', XB=0.8,2.4,-20.6,-20.5,8.4,8.7, SURF_ID='LINING PLASTER_BOARD'/ 
&OBST ID='stair steps', XB=0.8,2.4,-20.5,-20.4,8.4,8.8, SURF_ID='LINING PLASTER_BOARD'/ 
&OBST ID='stair steps', XB=0.8,2.4,-20.4,-20.3,8.5,8.8, SURF_ID='LINING PLASTER_BOARD'/ 
&OBST ID='stair steps', XB=0.8,2.4,-20.3,-20.2,8.5,8.9, SURF_ID='LINING PLASTER_BOARD'/ 
&OBST ID='stair steps', XB=0.8,2.4,-20.2,-20.1,8.6,9.0, SURF_ID='LINING PLASTER_BOARD'/ 
&OBST ID='stair steps', XB=0.8,2.4,-20.1,-20.0,8.7,9.1, SURF_ID='LINING PLASTER_BOARD'/ 
&OBST ID='stair steps', XB=0.8,2.4,-20.0,-19.9,8.8,9.1, SURF_ID='LINING PLASTER_BOARD'/ 
&OBST ID='stair steps', XB=0.8,2.4,-19.9,-19.8,8.8,9.2, SURF_ID='LINING PLASTER_BOARD'/ 
&OBST ID='stair steps', XB=0.8,2.4,-19.8,-19.7,8.9,9.3, SURF_ID='LINING PLASTER_BOARD'/ 
&OBST ID='stair steps', XB=0.8,2.4,-19.7,-19.6,9.0,9.4, SURF_ID='LINING PLASTER_BOARD'/ 
&OBST ID='stair steps', XB=0.8,2.4,-19.6,-19.5,9.1,9.4, SURF_ID='LINING PLASTER_BOARD'/ 
&OBST ID='stair steps', XB=0.8,2.4,-19.5,-19.4,9.1,9.5, SURF_ID='LINING PLASTER_BOARD'/ 
&OBST ID='stair steps', XB=0.8,2.4,-19.4,-19.3,9.2,9.6, SURF_ID='LINING PLASTER_BOARD'/ 
&OBST ID='stair steps', XB=0.8,2.4,-19.3,-19.2,9.3,9.7, SURF_ID='LINING PLASTER_BOARD'/ 
&OBST ID='stair steps', XB=0.8,2.4,-19.2,-19.1,9.4,9.8, SURF_ID='LINING PLASTER_BOARD'/ 
&OBST ID='stair steps', XB=0.8,2.4,-19.1,-19.0,9.5,9.8, SURF_ID='LINING PLASTER_BOARD'/ 
&OBST ID='stair steps', XB=0.8,2.4,-19.0,-18.9,9.5,9.9, SURF_ID='LINING PLASTER_BOARD'/ 
&OBST ID='stair steps', XB=0.8,2.4,-18.9,-18.8,9.6,10.0, SURF_ID='LINING PLASTER_BOARD'/ 
&OBST ID='stair steps', XB=0.8,2.4,-18.8,-18.7,9.7,10.1, SURF_ID='LINING PLASTER_BOARD'/ 
&OBST ID='stair steps', XB=0.8,2.4,-18.7,-18.6,9.8,10.1, SURF_ID='LINING PLASTER_BOARD'/ 
&OBST ID='stair steps', XB=0.8,2.4,-18.6,-18.5,9.8,10.2, SURF_ID='LINING PLASTER_BOARD'/ 
&OBST ID='stair steps', XB=0.8,2.4,-18.5,-18.4,9.9,10.3, SURF_ID='LINING PLASTER_BOARD'/ 
&OBST ID='stair steps', XB=0.8,2.4,-18.4,-18.3,10.0,10.4, SURF_ID='LINING PLASTER_BOARD'/ 
&OBST ID='stair steps', XB=0.8,2.4,-18.2,-18.1,10.1,10.2, SURF_ID='LINING PLASTER_BOARD'/ 
&OBST ID='stair steps', XB=0.8,2.4,-18.3,-18.2,10.1,10.3, SURF_ID='LINING PLASTER_BOARD'/ 
&OBST ID='stair steps', XB=0.8,2.4,-20.7,-20.5,8.3,8.4, SURF_ID='LINING PLASTER_BOARD'/ 
&OBST ID='stair steps', XB=0.8,2.4,-20.5,-20.4,8.4,8.4, SURF_ID='LINING PLASTER_BOARD'/ 
&OBST ID='stair steps', XB=0.8,2.4,-20.7,-20.6,4.7,5.0, SURF_ID='LINING PLASTER_BOARD'/ 
&OBST ID='stair steps', XB=0.8,2.4,-20.6,-20.5,4.7,5.1, SURF_ID='LINING PLASTER_BOARD'/ 
&OBST ID='stair steps', XB=0.8,2.4,-20.8,-20.7,4.8,4.9, SURF_ID='LINING PLASTER_BOARD'/ 
&OBST ID='stair steps', XB=0.8,2.4,-20.5,-20.4,4.8,5.2, SURF_ID='LINING PLASTER_BOARD'/ 
&OBST ID='stair steps', XB=0.8,2.4,-20.4,-20.3,4.9,5.2, SURF_ID='LINING PLASTER_BOARD'/ 
&OBST ID='stair steps', XB=0.8,2.4,-20.3,-20.2,4.9,5.3, SURF_ID='LINING PLASTER_BOARD'/ 
&OBST ID='stair steps', XB=0.8,2.4,-20.2,-20.1,5.0,5.4, SURF_ID='LINING PLASTER_BOARD'/ 
&OBST ID='stair steps', XB=0.8,2.4,-20.1,-20.0,5.1,5.4, SURF_ID='LINING PLASTER_BOARD'/ 
&OBST ID='stair steps', XB=0.8,2.4,-20.0,-19.9,5.1,5.5, SURF_ID='LINING PLASTER_BOARD'/ 
&OBST ID='stair steps', XB=0.8,2.4,-19.9,-19.8,5.2,5.6, SURF_ID='LINING PLASTER_BOARD'/ 
&OBST ID='stair steps', XB=0.8,2.4,-19.8,-19.7,5.3,5.7, SURF_ID='LINING PLASTER_BOARD'/ 
&OBST ID='stair steps', XB=0.8,2.4,-19.7,-19.6,5.4,5.7, SURF_ID='LINING PLASTER_BOARD'/ 
&OBST ID='stair steps', XB=0.8,2.4,-19.6,-19.5,5.4,5.8, SURF_ID='LINING PLASTER_BOARD'/ 
&OBST ID='stair steps', XB=0.8,2.4,-19.5,-19.4,5.5,5.9, SURF_ID='LINING PLASTER_BOARD'/ 
&OBST ID='stair steps', XB=0.8,2.4,-19.4,-19.3,5.6,5.9, SURF_ID='LINING PLASTER_BOARD'/ 
&OBST ID='stair steps', XB=0.8,2.4,-19.3,-19.2,5.6,6.0, SURF_ID='LINING PLASTER_BOARD'/ 
&OBST ID='stair steps', XB=0.8,2.4,-19.2,-19.1,5.7,6.1, SURF_ID='LINING PLASTER_BOARD'/ 
&OBST ID='stair steps', XB=0.8,2.4,-19.1,-19.0,5.8,6.2, SURF_ID='LINING PLASTER_BOARD'/ 
&OBST ID='stair steps', XB=0.8,2.4,-19.0,-18.9,5.9,6.2, SURF_ID='LINING PLASTER_BOARD'/ 
&OBST ID='stair steps', XB=0.8,2.4,-18.9,-18.8,5.9,6.3, SURF_ID='LINING PLASTER_BOARD'/ 
&OBST ID='stair steps', XB=0.8,2.4,-18.8,-18.7,6.0,6.4, SURF_ID='LINING PLASTER_BOARD'/ 
&OBST ID='stair steps', XB=0.8,2.4,-18.7,-18.6,6.1,6.4, SURF_ID='LINING PLASTER_BOARD'/ 
&OBST ID='stair steps', XB=0.8,2.4,-18.6,-18.5,6.2,6.5, SURF_ID='LINING PLASTER_BOARD'/ 
&OBST ID='stair steps', XB=0.8,2.4,-18.5,-18.4,6.2,6.6, SURF_ID='LINING PLASTER_BOARD'/ 
&OBST ID='stair steps', XB=0.8,2.4,-18.4,-18.3,6.3,6.7, SURF_ID='LINING PLASTER_BOARD'/ 
&OBST ID='stair steps', XB=0.8,2.4,-18.2,-18.1,6.4,6.5, SURF_ID='LINING PLASTER_BOARD'/ 
&OBST ID='stair steps', XB=0.8,2.4,-18.3,-18.2,6.4,6.6, SURF_ID='LINING PLASTER_BOARD'/ 
&OBST ID='stair steps', XB=2.6,4.1,-20.8,-20.7,8.4,8.5, SURF_ID='LINING PLASTER_BOARD'/ 
&OBST ID='stair steps', XB=2.6,4.1,-20.9,-20.8,8.4,8.4, SURF_ID='LINING PLASTER_BOARD'/ 
&OBST ID='stair steps', XB=2.6,4.1,-18.4,-18.3,6.6,6.7, SURF_ID='LINING PLASTER_BOARD'/ 
&OBST ID='stair steps', XB=2.6,4.1,-18.5,-18.4,6.6,6.8, SURF_ID='LINING PLASTER_BOARD'/ 
&OBST ID='stair steps', XB=2.6,4.1,-18.6,-18.5,6.6,6.9, SURF_ID='LINING PLASTER_BOARD'/ 
&OBST ID='stair steps', XB=2.6,4.1,-18.7,-18.6,6.7,7.0, SURF_ID='LINING PLASTER_BOARD'/ 
&OBST ID='stair steps', XB=2.6,4.1,-18.8,-18.7,6.8,7.0, SURF_ID='LINING PLASTER_BOARD'/ 
&OBST ID='stair steps', XB=2.6,4.1,-18.9,-18.8,6.8,7.1, SURF_ID='LINING PLASTER_BOARD'/ 
&OBST ID='stair steps', XB=2.6,4.1,-19.0,-18.9,6.9,7.2, SURF_ID='LINING PLASTER_BOARD'/ 
&OBST ID='stair steps', XB=2.6,4.1,-19.1,-19.0,7.0,7.2, SURF_ID='LINING PLASTER_BOARD'/ 
&OBST ID='stair steps', XB=2.6,4.1,-19.2,-19.1,7.1,7.3, SURF_ID='LINING PLASTER_BOARD'/ 
&OBST ID='stair steps', XB=2.6,4.1,-19.3,-19.2,7.1,7.4, SURF_ID='LINING PLASTER_BOARD'/ 
&OBST ID='stair steps', XB=2.6,4.1,-19.4,-19.3,7.2,7.5, SURF_ID='LINING PLASTER_BOARD'/ 
&OBST ID='stair steps', XB=2.6,4.1,-19.5,-19.4,7.3,7.5, SURF_ID='LINING PLASTER_BOARD'/ 
&OBST ID='stair steps', XB=2.6,4.1,-19.6,-19.5,7.4,7.6, SURF_ID='LINING PLASTER_BOARD'/ 
&OBST ID='stair steps', XB=2.6,4.1,-19.7,-19.6,7.4,7.7, SURF_ID='LINING PLASTER_BOARD'/ 
&OBST ID='stair steps', XB=2.6,4.1,-19.8,-19.7,7.5,7.7, SURF_ID='LINING PLASTER_BOARD'/ 
&OBST ID='stair steps', XB=2.6,4.1,-19.9,-19.8,7.6,7.8, SURF_ID='LINING PLASTER_BOARD'/ 
&OBST ID='stair steps', XB=2.6,4.1,-20.0,-19.9,7.6,7.9, SURF_ID='LINING PLASTER_BOARD'/ 
&OBST ID='stair steps', XB=2.6,4.1,-20.1,-20.0,7.7,8.0, SURF_ID='LINING PLASTER_BOARD'/ 
&OBST ID='stair steps', XB=2.6,4.1,-20.2,-20.1,7.8,8.0, SURF_ID='LINING PLASTER_BOARD'/ 
&OBST ID='stair steps', XB=2.6,4.1,-20.3,-20.2,7.9,8.1, SURF_ID='LINING PLASTER_BOARD'/ 
&OBST ID='stair steps', XB=2.6,4.1,-20.4,-20.3,7.9,8.2, SURF_ID='LINING PLASTER_BOARD'/ 
&OBST ID='stair steps', XB=2.6,4.1,-20.5,-20.4,8.0,8.2, SURF_ID='LINING PLASTER_BOARD'/ 
&OBST ID='stair steps', XB=2.6,4.1,-20.6,-20.5,8.1,8.3, SURF_ID='LINING PLASTER_BOARD'/ 
&OBST ID='stair steps', XB=2.6,4.1,-20.7,-20.6,8.1,8.4, SURF_ID='LINING PLASTER_BOARD'/ 
&OBST ID='stair steps', XB=2.6,4.1,-20.8,-20.7,8.2,8.4, SURF_ID='LINING PLASTER_BOARD'/ 
&OBST ID='stair steps', XB=2.6,4.1,-20.9,-20.8,8.3,8.4, SURF_ID='LINING PLASTER_BOARD'/ 
&OBST ID='stair steps', XB=2.6,4.1,-18.4,-18.4,6.5,6.6, SURF_ID='LINING PLASTER_BOARD'/ 
&OBST ID='stair steps', XB=2.6,4.1,-18.4,-18.3,10.3,10.4, SURF_ID='LINING PLASTER_BOARD'/ 
&OBST ID='stair steps', XB=2.6,4.1,-18.5,-18.4,10.3,10.5, SURF_ID='LINING PLASTER_BOARD'/ 
&OBST ID='stair steps', XB=2.6,4.1,-18.6,-18.5,10.3,10.6, SURF_ID='LINING PLASTER_BOARD'/ 
&OBST ID='stair steps', XB=2.6,4.1,-18.7,-18.6,10.4,10.7, SURF_ID='LINING PLASTER_BOARD'/ 
&OBST ID='stair steps', XB=2.6,4.1,-18.8,-18.7,10.5,10.7, SURF_ID='LINING PLASTER_BOARD'/ 
&OBST ID='stair steps', XB=2.6,4.1,-18.9,-18.8,10.5,10.8, SURF_ID='LINING PLASTER_BOARD'/ 
&OBST ID='stair steps', XB=2.6,4.1,-19.0,-18.9,10.6,10.9, SURF_ID='LINING PLASTER_BOARD'/ 
&OBST ID='stair steps', XB=2.6,4.1,-19.1,-19.0,10.7,10.9, SURF_ID='LINING PLASTER_BOARD'/ 
&OBST ID='stair steps', XB=2.6,4.1,-19.2,-19.1,10.8,11.0, SURF_ID='LINING PLASTER_BOARD'/ 
&OBST ID='stair steps', XB=2.6,4.1,-19.3,-19.2,10.8,11.1, SURF_ID='LINING PLASTER_BOARD'/ 
&OBST ID='stair steps', XB=2.6,4.1,-19.4,-19.3,10.9,11.1, SURF_ID='LINING PLASTER_BOARD'/ 
&OBST ID='stair steps', XB=2.6,4.1,-19.5,-19.4,11.0,11.1, SURF_ID='LINING PLASTER_BOARD'/ 
&OBST ID='stair steps', XB=2.6,4.1,-19.6,-19.5,11.1,11.1, SURF_ID='LINING PLASTER_BOARD'/ 
&OBST ID='stair steps', XB=2.6,4.1,-18.4,-18.4,10.2,10.3, SURF_ID='LINING PLASTER_BOARD'/ 
&OBST ID='stair steps', XB=2.6,4.1,-19.5,-19.3,11.1,11.2, SURF_ID='LINING PLASTER_BOARD'/ 
&OBST ID='stair steps', XB=2.6,4.1,-19.6,-19.5,11.1,11.3, SURF_ID='LINING PLASTER_BOARD'/ 
&OBST ID='stair steps', XB=2.6,4.1,-19.7,-19.6,11.1,11.4, SURF_ID='LINING PLASTER_BOARD'/ 
&OBST ID='stair steps', XB=2.6,4.1,-19.8,-19.7,11.2,11.4, SURF_ID='LINING PLASTER_BOARD'/ 
&OBST ID='stair steps', XB=2.6,4.1,-19.9,-19.8,11.3,11.5, SURF_ID='LINING PLASTER_BOARD'/ 
&OBST ID='stair steps', XB=2.6,4.1,-20.0,-19.9,11.3,11.6, SURF_ID='LINING PLASTER_BOARD'/ 
&OBST ID='stair steps', XB=2.6,4.1,-20.1,-20.0,11.4,11.7, SURF_ID='LINING PLASTER_BOARD'/ 
&OBST ID='stair steps', XB=2.6,4.1,-20.2,-20.1,11.5,11.7, SURF_ID='LINING PLASTER_BOARD'/ 
&OBST ID='stair steps', XB=2.6,4.1,-20.3,-20.2,11.6,11.8, SURF_ID='LINING PLASTER_BOARD'/ 
&OBST ID='stair steps', XB=2.6,4.1,-20.4,-20.3,11.6,11.9, SURF_ID='LINING PLASTER_BOARD'/ 
&OBST ID='stair steps', XB=2.6,4.1,-20.5,-20.4,11.7,11.9, SURF_ID='LINING PLASTER_BOARD'/ 
&OBST ID='stair steps', XB=2.6,4.1,-20.6,-20.5,11.8,12.0, SURF_ID='LINING PLASTER_BOARD'/ 
&OBST ID='stair steps', XB=2.6,4.1,-20.7,-20.6,11.8,12.1, SURF_ID='LINING PLASTER_BOARD'/ 
&OBST ID='stair steps', XB=2.6,4.1,-20.8,-20.7,11.9,12.2, SURF_ID='LINING PLASTER_BOARD'/ 
&OBST ID='stair steps', XB=2.6,4.1,-20.9,-20.8,12.0,12.1, SURF_ID='LINING PLASTER_BOARD'/ 
&OBST ID='stair steps', XB=2.6,4.1,-18.4,-18.3,13.7,13.8, SURF_ID='LINING PLASTER_BOARD'/ 
&OBST ID='stair steps', XB=2.6,4.1,-18.5,-18.4,13.7,13.9, SURF_ID='LINING PLASTER_BOARD'/ 
&OBST ID='stair steps', XB=2.6,4.1,-18.6,-18.5,13.7,14.0, SURF_ID='LINING PLASTER_BOARD'/ 
&OBST ID='stair steps', XB=2.6,4.1,-18.7,-18.6,13.8,14.0, SURF_ID='LINING PLASTER_BOARD'/ 
&OBST ID='stair steps', XB=2.6,4.1,-18.8,-18.7,13.9,14.1, SURF_ID='LINING PLASTER_BOARD'/ 
&OBST ID='stair steps', XB=2.6,4.1,-18.9,-18.8,13.9,14.2, SURF_ID='LINING PLASTER_BOARD'/ 
&OBST ID='stair steps', XB=2.6,4.1,-19.0,-18.9,14.0,14.2, SURF_ID='LINING PLASTER_BOARD'/ 
&OBST ID='stair steps', XB=2.6,4.1,-19.1,-19.0,14.0,14.3, SURF_ID='LINING PLASTER_BOARD'/ 
&OBST ID='stair steps', XB=2.6,4.1,-19.2,-19.1,14.1,14.3, SURF_ID='LINING PLASTER_BOARD'/ 
&OBST ID='stair steps', XB=2.6,4.1,-19.3,-19.2,14.2,14.4, SURF_ID='LINING PLASTER_BOARD'/ 
&OBST ID='stair steps', XB=2.6,4.1,-19.4,-19.3,14.2,14.5, SURF_ID='LINING PLASTER_BOARD'/ 
&OBST ID='stair steps', XB=2.6,4.1,-19.5,-19.4,14.3,14.5, SURF_ID='LINING PLASTER_BOARD'/ 
&OBST ID='stair steps', XB=2.6,4.1,-19.6,-19.5,14.4,14.6, SURF_ID='LINING PLASTER_BOARD'/ 
&OBST ID='stair steps', XB=2.6,4.1,-19.7,-19.6,14.4,14.7, SURF_ID='LINING PLASTER_BOARD'/ 
&OBST ID='stair steps', XB=2.6,4.1,-19.8,-19.7,14.5,14.7, SURF_ID='LINING PLASTER_BOARD'/ 
&OBST ID='stair steps', XB=2.6,4.1,-19.9,-19.8,14.6,14.8, SURF_ID='LINING PLASTER_BOARD'/ 
&OBST ID='stair steps', XB=2.6,4.1,-20.0,-19.9,14.6,14.9, SURF_ID='LINING PLASTER_BOARD'/ 
&OBST ID='stair steps', XB=2.6,4.1,-20.1,-20.0,14.7,14.9, SURF_ID='LINING PLASTER_BOARD'/ 
&OBST ID='stair steps', XB=2.6,4.1,-20.2,-20.1,14.7,15.0, SURF_ID='LINING PLASTER_BOARD'/ 
&OBST ID='stair steps', XB=2.6,4.1,-20.3,-20.2,14.8,15.0, SURF_ID='LINING PLASTER_BOARD'/ 
&OBST ID='stair steps', XB=2.6,4.1,-20.4,-20.3,14.9,15.1, SURF_ID='LINING PLASTER_BOARD'/ 
&OBST ID='stair steps', XB=2.6,4.1,-20.5,-20.4,14.9,15.2, SURF_ID='LINING PLASTER_BOARD'/ 
&OBST ID='stair steps', XB=2.6,4.1,-20.6,-20.5,15.0,15.2, SURF_ID='LINING PLASTER_BOARD'/ 
&OBST ID='stair steps', XB=2.6,4.1,-20.7,-20.6,15.1,15.3, SURF_ID='LINING PLASTER_BOARD'/ 
&OBST ID='stair steps', XB=2.6,4.1,-20.8,-20.7,15.1,15.4, SURF_ID='LINING PLASTER_BOARD'/ 
&OBST ID='stair steps', XB=2.6,4.1,-20.9,-20.8,15.2,15.3, SURF_ID='LINING PLASTER_BOARD'/ 
&OBST ID='stair steps', XB=2.6,4.1,-18.4,-18.4,13.6,13.7, SURF_ID='LINING PLASTER_BOARD'/ 
&OBST ID='corridor soffit', XB=4.4,4.8,-21.8,-20.6,11.1,12.2, COLOR='INVISIBLE', SURF_ID='LINING CONCRETE', CTRL_ID='invert'/ 
&OBST ID='corridor soffit', XB=4.4,4.8,-21.8,-20.6,11.0,11.1, COLOR='INVISIBLE', SURF_ID='LINING CONCRETE', CTRL_ID='invert'/ 
&OBST ID='corridor soffit', XB=4.2,4.4,-21.8,-20.6,11.1,12.2, COLOR='INVISIBLE', SURF_ID='LINING CONCRETE'/ 
&OBST ID='corridor soffit', XB=4.2,4.9,-22.0,-21.8,11.1,12.2, COLOR='INVISIBLE', SURF_ID='LINING CONCRETE'/ 
&OBST ID='corridor soffit', XB=4.2,4.9,-20.6,-20.5,11.1,12.2, COLOR='INVISIBLE', SURF_ID='LINING CONCRETE'/ 
&OBST ID='corridor soffit', XB=4.8,4.9,-21.8,-20.6,11.1,12.2, COLOR='INVISIBLE', SURF_ID='LINING CONCRETE'/ 
&OBST ID='corridor soffit', XB=20.2,22.1,-22.9,-22.1,11.0,11.1, COLOR='INVISIBLE', SURF_ID='LINING CONCRETE'/ 
&OBST ID='corridor soffit', XB=4.2,4.4,-21.8,-20.6,11.0,11.1, COLOR='INVISIBLE', SURF_ID='LINING CONCRETE'/ 
&OBST ID='corridor soffit', XB=4.2,28.5,-22.1,-21.8,11.0,11.1, COLOR='INVISIBLE', SURF_ID='LINING CONCRETE'/ 
&OBST ID='corridor soffit', XB=4.2,28.5,-20.6,-20.4,11.0,11.1, COLOR='INVISIBLE', SURF_ID='LINING CONCRETE'/ 
&OBST ID='corridor soffit', XB=4.8,28.5,-21.8,-20.6,11.0,11.1, COLOR='INVISIBLE', SURF_ID='LINING CONCRETE'/ 
&OBST ID='corridor soffit', XB=24.7,28.5,-20.4,-20.3,11.0,11.1, COLOR='INVISIBLE', SURF_ID='LINING CONCRETE'/ 
&OBST ID='corridor soffit', XB=4.2,6.8,-22.2,-22.1,11.0,11.1, COLOR='INVISIBLE', SURF_ID='LINING CONCRETE'/ 
&OBST ID='stair wall', XB=3.0,3.8,-22.7,-22.6,8.5,10.5, COLOR='INVISIBLE', SURF_ID='LINING CONCRETE', CTRL_ID='invert2'/ 
&OBST ID='stair wall', XB=3.0,3.8,-22.8,-22.7,8.5,10.5, COLOR='INVISIBLE', SURF_ID='LINING CONCRETE', CTRL_ID='invert2'/ 
&OBST ID='stair wall', XB=4.2,4.3,-22.0,-20.5,11.1,18.5, COLOR='INVISIBLE', SURF_ID='LINING CONCRETE'/ 
&OBST ID='stair wall', XB=4.2,4.3,-22.1,-20.4,8.4,8.4, COLOR='INVISIBLE', SURF_ID='LINING CONCRETE'/ 
&OBST ID='stair wall', XB=4.2,4.3,-22.1,-22.1,8.4,11.1, COLOR='INVISIBLE', SURF_ID='LINING CONCRETE'/ 
&OBST ID='stair wall', XB=4.2,4.3,-20.4,-20.4,8.4,11.1, COLOR='INVISIBLE', SURF_ID='LINING CONCRETE'/ 
&OBST ID='stair wall', XB=4.2,4.2,-22.1,-20.4,8.4,11.1, COLOR='INVISIBLE', SURF_ID='LINING CONCRETE'/ 
&OBST ID='stair wall', XB=4.3,4.3,-22.1,-20.4,8.4,11.1, COLOR='INVISIBLE', SURF_ID='LINING CONCRETE'/ 
&OBST ID='stair wall', XB=0.7,0.8,-22.6,-16.9,8.4,11.1, COLOR='INVISIBLE', SURF_ID='LINING CONCRETE'/ 
&OBST ID='stair wall', XB=0.7,3.0,-22.7,-22.6,8.4,11.1, COLOR='INVISIBLE', SURF_ID='LINING CONCRETE'/ 
&OBST ID='stair wall', XB=0.7,4.2,-16.9,-16.8,8.4,11.1, COLOR='INVISIBLE', SURF_ID='LINING CONCRETE'/ 
&OBST ID='stair wall', XB=3.0,3.8,-22.7,-22.6,8.4,8.5, COLOR='INVISIBLE', SURF_ID='LINING CONCRETE'/ 
&OBST ID='stair wall', XB=3.0,3.8,-22.7,-22.6,10.5,11.1, COLOR='INVISIBLE', SURF_ID='LINING CONCRETE'/ 
&OBST ID='stair wall', XB=3.8,4.2,-22.7,-22.6,8.4,11.1, COLOR='INVISIBLE', SURF_ID='LINING CONCRETE'/ 
&OBST ID='stair wall', XB=4.1,4.2,-22.6,-16.9,8.4,11.1, COLOR='INVISIBLE', SURF_ID='LINING CONCRETE'/ 