
&MESH ID='MESH01', IJK=10,10,10, XB=0.0,1.0,0.0,1.0,0.0,1.0/
&MESH ID='MESH02', IJK=10,8,10, XB=1.0,2.0,0.2,1.0,0.0,1.0/
&MESH ID='MESH03', IJK=10,4,10, XB=2.0,3.0,0.6,1.0,0.0,1.0/
&MESH ID='MESH04', IJK=10,4,10, XB=2.0,3.0,0.2,0.6,0.0,1.0/
&MESH ID='MESH05', IJK=20,7,10, XB=1.0,3.0,-0.5,0.2,0.0,1.0/
&MESH ID='MESH06', IJK=8,10,10, XB=0.0,0.8,-1.0,0.0,0.0,1.0/
&MESH ID='MESH07', IJK=8,10,10, XB=0.0,0.8,-2.0,-1.0,0.0,1.0/
&MESH ID='MESH08', IJK=2,20,10, XB=0.8,1.0,-2.0,0.0,0.0,1.0/
&MESH ID='MESH09', IJK=5,15,10, XB=1.0,1.5,-2.0,-0.5,0.0,1.0/
&MESH ID='MESH10', IJK=5,15,10, XB=1.5,2.0,-2.0,-0.5,0.0,1.0/
&MESH ID='MESH11', IJK=10,15,10, XB=2.0,3.0,-2.0,-0.5,0.0,1.0/

