&MESH ID='SHAFT F10 ENTRANCE9-b-a', IJK=10,20,480, XB=16.8,17.0,5.6,6.0,-0.1,9.5/
&MESH ID='SHAFT F10 ENTRANCE9-b-b', IJK=10,20,473, XB=16.8,17.0,5.6,6.0,9.5,18.96/
&MESH ID='SHAFT F10 ENTRANCE RF', IJK=10,105,16, XB=16.8,17.0,3.8,5.9,18.96,19.28, MPI_PROCESS=5/
&MESH ID='MESH02', IJK=3,4,20, XB=17.0,17.3,5.6,6.0,-0.1,1.9, MPI_PROCESS=11/
&MESH ID='MESH04', IJK=3,4,24, XB=17.0,17.3,5.6,6.0,2.2,4.6, MPI_PROCESS=11/
&MESH ID='MESH09', IJK=3,4,24, XB=17.0,17.3,5.6,6.0,4.9,7.3, MPI_PROCESS=11/
&MESH ID='MESH10', IJK=3,4,24, XB=17.0,17.3,5.6,6.0,7.6,10.0, MPI_PROCESS=11/
&MESH ID='MESH11', IJK=3,4,24, XB=17.0,17.3,5.6,6.0,10.3,12.7, MPI_PROCESS=11/
&MESH ID='MESH12', IJK=3,4,24, XB=17.0,17.3,5.6,6.0,13.0,15.4, MPI_PROCESS=11/
&MESH ID='MESH13', IJK=3,4,22, XB=17.0,17.3,5.6,6.0,15.7,17.9, MPI_PROCESS=11/
&MESH ID='SHAFT F10 ENTRANCE9-b02', IJK=15,20,15, XB=17.0,17.3,5.6,6.0,1.9,2.2, MPI_PROCESS=5/
&MESH ID='SHAFT F10 ENTRANCE9-b01', IJK=15,20,15, XB=17.0,17.3,5.6,6.0,4.6,4.9, MPI_PROCESS=5/
&MESH ID='SHAFT F10 ENTRANCE9-b03', IJK=15,20,15, XB=17.0,17.3,5.6,6.0,7.3,7.6, MPI_PROCESS=5/
&MESH ID='SHAFT F10 ENTRANCE9-b04', IJK=15,20,15, XB=17.0,17.3,5.6,6.0,10.0,10.3, MPI_PROCESS=5/
&MESH ID='SHAFT F10 ENTRANCE9-b05', IJK=15,20,15, XB=17.0,17.3,5.6,6.0,12.7,13.0, MPI_PROCESS=5/
&MESH ID='SHAFT F10 ENTRANCE9-b06', IJK=15,20,15, XB=17.0,17.3,5.6,6.0,15.4,15.7, MPI_PROCESS=5/
&MESH ID='SHAFT F10 ENTRANCE9-b07', IJK=15,20,20, XB=17.0,17.3,5.6,6.0,17.9,18.3, MPI_PROCESS=5/
&MESH ID='SHAFT F10 BATH-b', IJK=10,15,962, XB=15.2,15.4,5.7,6.0,-0.1,19.14, MPI_PROCESS=8/
&MESH ID='SHAFT F10 BATH RF', IJK=403,10,7, XB=7.34,15.4,5.7,5.9,19.14,19.28, MPI_PROCESS=4/
&MESH ID='SHAFT F10 BATH-b01', IJK=15,20,15, XB=15.4,15.7,5.6,6.0,18.0,18.3, MPI_PROCESS=8/
&MESH ID='SHAFT F10 BATH-b02', IJK=15,20,10, XB=15.4,15.7,5.6,6.0,15.5,15.7, MPI_PROCESS=8/
&MESH ID='SHAFT F10 BATH-b03', IJK=15,20,10, XB=15.4,15.7,5.6,6.0,12.8,13.0, MPI_PROCESS=8/
&MESH ID='SHAFT F10 BATH-b04', IJK=15,20,10, XB=15.4,15.7,5.6,6.0,10.1,10.3, MPI_PROCESS=8/
&MESH ID='SHAFT F10 BATH-b05', IJK=15,20,10, XB=15.4,15.7,5.6,6.0,7.4,7.6, MPI_PROCESS=8/
&MESH ID='SHAFT F10 BATH-b06', IJK=15,20,10, XB=15.4,15.7,5.6,6.0,4.7,4.9, MPI_PROCESS=8/
&MESH ID='SHAFT F10 BATH-b07', IJK=15,20,10, XB=15.4,15.7,5.6,6.0,2.0,2.2, MPI_PROCESS=8/
&MESH ID='SHAFT F10 BATH RF01', IJK=274,10,6, XB=7.34,12.82,5.7,5.9,19.02,19.14, MPI_PROCESS=4/
&MESH ID='MESH15', IJK=3,4,21, XB=15.4,15.7,5.6,6.0,-0.1,2.0, MPI_PROCESS=11/
&MESH ID='SHAFT F10 KITCHEN-a-a', IJK=5,15,956, XB=12.7,12.8,5.7,6.0,-0.1,19.02, MPI_PROCESS=0/
&MESH ID='SHAFT F10 KITCHEN-a-a01', IJK=15,20,10, XB=12.8,13.1,5.6,6.0,2.0,2.2, MPI_PROCESS=0/
&MESH ID='SHAFT F10 KITCHEN-a-a02', IJK=15,20,10, XB=12.8,13.1,5.6,6.0,4.7,4.9, MPI_PROCESS=0/
&MESH ID='SHAFT F10 KITCHEN-a-a03', IJK=15,20,10, XB=12.8,13.1,5.6,6.0,7.4,7.6, MPI_PROCESS=0/
&MESH ID='SHAFT F10 KITCHEN-a-a04', IJK=15,20,10, XB=12.8,13.1,5.6,6.0,10.1,10.3, MPI_PROCESS=0/
&MESH ID='SHAFT F10 KITCHEN-a-a05', IJK=15,20,10, XB=12.8,13.1,5.6,6.0,12.8,13.0, MPI_PROCESS=0/
&MESH ID='SHAFT F10 KITCHEN-a-a06', IJK=15,20,10, XB=12.8,13.1,5.6,6.0,15.5,15.7, MPI_PROCESS=0/
&MESH ID='SHAFT F10 KITCHEN-a-a07', IJK=15,20,15, XB=12.8,13.1,5.6,6.0,18.0,18.3, MPI_PROCESS=0/
&MESH ID='SHAFT F10 KITCHEN-a-a08', IJK=3,4,23, XB=12.8,13.1,5.6,6.0,15.7,18.0, MPI_PROCESS=0/
&MESH ID='SHAFT F10 KITCHEN-a-a09', IJK=3,4,25, XB=12.8,13.1,5.6,6.0,13.0,15.5, MPI_PROCESS=0/
&MESH ID='SHAFT F10 KITCHEN-a-a10', IJK=3,4,25, XB=12.8,13.1,5.6,6.0,10.3,12.8, MPI_PROCESS=0/
&MESH ID='SHAFT F10 KITCHEN-a-a11', IJK=3,4,25, XB=12.8,13.1,5.6,6.0,7.6,10.1, MPI_PROCESS=0/
&MESH ID='SHAFT F10 KITCHEN-a-a12', IJK=3,4,25, XB=12.8,13.1,5.6,6.0,4.9,7.4, MPI_PROCESS=0/
&MESH ID='SHAFT F10 KITCHEN-a-a13', IJK=3,4,25, XB=12.8,13.1,5.6,6.0,2.2,4.7, MPI_PROCESS=0/
&MESH ID='SHAFT F10 KITCHEN-a-a14', IJK=3,4,21, XB=12.8,13.1,5.6,6.0,-0.1,2.0, MPI_PROCESS=0/
&MESH ID='MESH01', IJK=3,4,25, XB=15.4,15.7,5.6,6.0,2.2,4.7, MPI_PROCESS=11/
&MESH ID='MESH03', IJK=3,4,25, XB=15.4,15.7,5.6,6.0,4.9,7.4, MPI_PROCESS=11/
&MESH ID='MESH05', IJK=3,4,25, XB=15.4,15.7,5.6,6.0,7.6,10.1, MPI_PROCESS=11/
&MESH ID='MESH06', IJK=3,4,25, XB=15.4,15.7,5.6,6.0,10.3,12.8, MPI_PROCESS=11/
&MESH ID='MESH07', IJK=3,4,25, XB=15.4,15.7,5.6,6.0,13.0,15.5, MPI_PROCESS=11/
&MESH ID='MESH08', IJK=3,4,23, XB=15.4,15.7,5.6,6.0,15.7,18.0, MPI_PROCESS=11/
&MESH ID='SHAFT F10 KITCHEN-a-a15', IJK=20,20,15, XB=12.3,12.7,5.6,6.0,2.0,2.3, MPI_PROCESS=0/
&MESH ID='SHAFT F10 KITCHEN-a-a16', IJK=4,4,21, XB=12.3,12.7,5.6,6.0,-0.1,2.0, MPI_PROCESS=0/
&MESH ID='SHAFT F10 KITCHEN-a-a17', IJK=5,5,120, XB=12.7,12.8,5.6,5.7,-0.1,2.3, MPI_PROCESS=0/
&MESH ID='SHAFT F10 KITCHEN-a-a19', IJK=46,3,24, XB=7.7,12.3,5.7,6.0,-0.1,2.3, MPI_PROCESS=0/
&MESH ID='SHAFT F10 KITCHEN-a-a21', IJK=21,3,184, XB=13.1,15.2,5.7,6.0,-0.1,18.3, MPI_PROCESS=0/
&MESH ID='SHAFT F10 KITCHEN-a-a22', IJK=11,4,184, XB=15.7,16.8,5.6,6.0,-0.1,18.3, MPI_PROCESS=0/
&MESH ID='SHAFT F10 KITCHEN-a-a18', IJK=46,57,24, XB=7.7,12.3,2.015055E-14,5.7,-0.1,2.3, MPI_PROCESS=0/
&MESH ID='SHAFT F10 KITCHEN-a-a20', IJK=8,57,160, XB=12.3,13.1,-0.1,5.6,2.3,18.3, MPI_PROCESS=0/
&MESH ID='SHAFT F10 KITCHEN-a-a23-a', IJK=23,58,40, XB=13.1,15.4,-0.1,5.7,10.3,14.3/
&MESH ID='SHAFT F10 KITCHEN-a-a23-b', IJK=23,58,40, XB=13.1,15.4,-0.1,5.7,14.3,18.3/
&MESH ID='SHAFT F10 KITCHEN-a-a24-a', IJK=19,57,40, XB=15.4,17.3,-0.1,5.6,10.3,14.3/
&MESH ID='SHAFT F10 KITCHEN-a-a24-b', IJK=19,57,40, XB=15.4,17.3,-0.1,5.6,14.3,18.3/
&MESH ID='SHAFT F10 KITCHEN-a-a25-a', IJK=33,49,40, XB=17.3,20.6,1.1,6.0,10.3,14.3/
&MESH ID='SHAFT F10 KITCHEN-a-a25-b', IJK=33,49,40, XB=17.3,20.6,1.1,6.0,14.3,18.3/
&MESH ID='SHAFT F10 KITCHEN-a-a26', IJK=8,60,24, XB=12.3,13.1,-0.4,5.6,-0.1,2.3, MPI_PROCESS=0/
&MESH ID='SHAFT F10 KITCHEN-a-a27', IJK=23,61,24, XB=13.1,15.4,-0.4,5.7,-0.1,2.3, MPI_PROCESS=0/
&MESH ID='SHAFT F10 KITCHEN-a-a28', IJK=19,60,24, XB=15.4,17.3,-0.4,5.6,-0.1,2.3, MPI_PROCESS=0/
&MESH ID='SHAFT F10 KITCHEN-a-a29', IJK=33,64,24, XB=17.3,20.6,-0.4,6.0,-0.1,2.3, MPI_PROCESS=0/
&MESH ID='SHAFT F10 KITCHEN-a-a30-a', IJK=33,49,40, XB=17.3,20.6,1.1,6.0,2.3,6.3/
&MESH ID='SHAFT F10 KITCHEN-a-a30-b', IJK=33,49,40, XB=17.3,20.6,1.1,6.0,6.3,10.3/
&MESH ID='SHAFT F10 KITCHEN-a-a31-a', IJK=19,57,40, XB=15.4,17.3,-0.1,5.6,2.3,6.3/
&MESH ID='SHAFT F10 KITCHEN-a-a31-b', IJK=19,57,40, XB=15.4,17.3,-0.1,5.6,6.3,10.3/
&MESH ID='SHAFT F10 KITCHEN-a-a32-a', IJK=23,58,40, XB=13.1,15.4,-0.1,5.7,2.3,6.3/
&MESH ID='SHAFT F10 KITCHEN-a-a32-b', IJK=23,58,40, XB=13.1,15.4,-0.1,5.7,6.3,10.3/
&MESH ID='SHAFT F10 KITCHEN-a-a23', IJK=11,12,160, XB=17.3,18.4,-0.1,1.1,2.3,18.3, MPI_PROCESS=0/