1m_mesh_16.fds
Generated by PyroSim - Version 2013.1.1220
03-Apr-2014 10:04:40

&HEAD CHID='1m_mesh_16'/
&TIME T_END=10.0/
&DUMP RENDER_FILE='1m_mesh_16.ge1', DT_RESTART=300.0/

&MESH ID='MESH', IJK=25,50,50, XB=0.0,2.5,0.0,5.0,0.0,5.0, MPI_PROCESS=0/
&MESH ID='MESH-', IJK=25,50,50, XB=2.5,5.0,0.0,5.0,0.0,5.0, MPI_PROCESS=1/
&MESH ID='MESH-a', IJK=25,50,50, XB=0.0,2.5,5.0,10.0,0.0,5.0, MPI_PROCESS=2/
&MESH ID='MESH-a-', IJK=25,50,50, XB=2.5,5.0,5.0,10.0,0.0,5.0, MPI_PROCESS=3/
&MESH ID='MESH-a-a', IJK=25,50,50, XB=0.0,2.5,0.0,5.0,5.0,10.0, MPI_PROCESS=4/
&MESH ID='MESH-a-a-', IJK=25,50,50, XB=2.5,5.0,0.0,5.0,5.0,10.0, MPI_PROCESS=5/
&MESH ID='MESH-a-a-m', IJK=25,50,50, XB=0.0,2.5,5.0,10.0,5.0,10.0, MPI_PROCESS=6/
&MESH ID='MESH-a-a-me', IJK=25,50,50, XB=2.5,5.0,5.0,10.0,5.0,10.0, MPI_PROCESS=7/

&REAC ID='POLYURETHANE_REAC',
      FYI='SFPE Handbook, GM27',
      FUEL='REAC_FUEL',
      C=1.0,
      H=1.7,
      O=0.3,
      N=0.08,
      CO_YIELD=0.042,
      SOOT_YIELD=0.198 /
	  
&VENT ID='Vent', SURF_ID='OPEN', XB=-40.0,30.0,-40.0,30.0,30.0,30.0/ 
&VENT ID='Vent02', SURF_ID='OPEN', XB=-40.0,30.0,-40.0,30.0,10.0,10.0/ 

&TAIL /
