
&MESH ID='MESH39', IJK=64,66,11, XB=34.4,60.0,78.0,104.4,35.6,40.0, MPI_PROCESS=0/
&MESH ID='MESH11', IJK=64,87,10, XB=34.4,60.0,78.0,112.8,31.6,35.6, MPI_PROCESS=0/
&MESH ID='MESH28', IJK=64,104,29, XB=34.4,60.0,71.2,112.8,20.0,31.6, MPI_PROCESS=0/
&MESH ID='MESH21', IJK=128,208,20, XB=34.4,60.0,71.2,112.8,16.0,20.0, MPI_PROCESS=0/
&MESH ID='MESH40', IJK=31,132,22, XB=60.0,66.2,78.0,104.4,35.6,40.0, MPI_PROCESS=0/
&MESH ID='MESH12', IJK=31,174,20, XB=60.0,66.2,78.0,112.8,31.6,35.6, MPI_PROCESS=0/
&MESH ID='MESH29', IJK=31,208,58, XB=60.0,66.2,71.2,112.8,20.0,31.6, MPI_PROCESS=0/
&MESH ID='MESH-a', IJK=36,416,40, XB=60.0,63.6,71.2,112.8,16.0,20.0, MPI_PROCESS=0/
&MESH ID='MESH48', IJK=40,182,76, XB=66.2,70.2,83.4,101.6,20.0,27.6, MPI_PROCESS=1/
&MESH ID='MESH22', IJK=204,182,40, XB=66.2,86.6,83.4,101.6,16.0,20.0, MPI_PROCESS=1/
&MESH ID='MESH51', IJK=42,182,76, XB=74.2,78.4,83.4,101.6,20.0,27.6, MPI_PROCESS=2/
&MESH ID='MESH50', IJK=40,182,76, XB=78.4,82.4,83.4,101.6,20.0,27.6, MPI_PROCESS=2/
&MESH ID='MESH49', IJK=42,182,76, XB=82.4,86.6,83.4,101.6,20.0,27.6, MPI_PROCESS=2/
&MESH ID='MESH23', IJK=204,122,40, XB=66.2,86.6,71.2,83.4,16.0,20.0, MPI_PROCESS=3/
&MESH ID='MESH24', IJK=154,139,40, XB=86.6,102.0,84.6,98.5,16.0,20.0, MPI_PROCESS=3/
&MESH ID='MESH25', IJK=154,116,40, XB=86.6,102.0,73.0,84.6,16.0,20.0, MPI_PROCESS=3/
&MESH ID='MESH52', IJK=40,182,76, XB=70.2,74.2,83.4,101.6,20.0,27.6, MPI_PROCESS=4/
&MESH ID='MESH41', IJK=102,14,22, XB=66.2,86.6,101.6,104.4,35.6,40.0, MPI_PROCESS=4/
&MESH ID='MESH42', IJK=102,27,22, XB=66.2,86.6,78.0,83.4,35.6,40.0, MPI_PROCESS=4/
&MESH ID='MESH13', IJK=102,56,20, XB=66.2,86.6,101.6,112.8,31.6,35.6, MPI_PROCESS=4/
&MESH ID='MESH14', IJK=102,27,20, XB=66.2,86.6,78.0,83.4,31.6,35.6, MPI_PROCESS=4/
&MESH ID='MESH30', IJK=102,56,58, XB=66.2,86.6,101.6,112.8,20.0,31.6, MPI_PROCESS=4/
&MESH ID='MESH32', IJK=102,61,58, XB=66.2,86.6,71.2,83.4,20.0,31.6, MPI_PROCESS=4/
&MESH ID='MESH56', IJK=20,91,104, XB=66.2,70.2,83.4,101.6,27.6,48.4, MPI_PROCESS=4/
&MESH ID='MESH57', IJK=20,91,104, XB=70.2,74.2,83.4,101.6,27.6,48.4, MPI_PROCESS=4/
&MESH ID='MESH58', IJK=21,91,104, XB=74.2,78.4,83.4,101.6,27.6,48.4, MPI_PROCESS=4/
&MESH ID='MESH59', IJK=20,91,104, XB=78.4,82.4,83.4,101.6,27.6,48.4, MPI_PROCESS=4/
&MESH ID='MESH60', IJK=21,91,104, XB=82.4,86.6,83.4,101.6,27.6,48.4, MPI_PROCESS=4/
&MESH ID='MESH-b', IJK=26,416,40, XB=63.6,66.2,71.2,112.8,16.0,20.0, MPI_PROCESS=5/
&MESH ID='MESH20', IJK=204,112,40, XB=66.2,86.6,101.6,112.8,16.0,20.0, MPI_PROCESS=5/
&MESH ID='MESH01', IJK=154,129,40, XB=86.6,102.0,98.5,111.4,16.0,20.0, MPI_PROCESS=5/
&MESH ID='MESH80', IJK=13,90,29, XB=132.4,137.6,65.4,101.4,20.0,31.6, MPI_PROCESS=6/
&MESH ID='MESH81', IJK=13,93,29, XB=137.6,142.8,62.2,99.4,20.0,31.6, MPI_PROCESS=6/
&MESH ID='MESH82', IJK=13,97,29, XB=142.8,148.0,59.4,98.2,20.0,31.6, MPI_PROCESS=6/
&MESH ID='MESH83', IJK=13,97,29, XB=148.0,153.2,56.2,95.0,20.0,31.6, MPI_PROCESS=6/
&MESH ID='MESH84', IJK=13,98,29, XB=153.2,158.4,52.6,91.8,20.0,31.6, MPI_PROCESS=6/
&MESH ID='MESH85', IJK=13,98,29, XB=158.4,163.6,49.4,88.6,20.0,31.6, MPI_PROCESS=6/
&MESH ID='MESH86', IJK=13,92,29, XB=163.6,168.8,48.6,85.4,20.0,31.6, MPI_PROCESS=6/
&MESH ID='MESH87', IJK=13,95,29, XB=168.8,174.0,44.6,82.6,20.0,31.6, MPI_PROCESS=6/
&MESH ID='MESH88', IJK=13,99,29, XB=174.0,179.2,39.8,79.4,20.0,31.6, MPI_PROCESS=6/
&MESH ID='MESH89', IJK=6,95,29, XB=179.2,181.6,38.2,76.2,20.0,31.6, MPI_PROCESS=6/
&MESH ID='MESH90', IJK=5,92,29, XB=181.6,183.6,35.8,72.6,20.0,31.6, MPI_PROCESS=6/
&MESH ID='MESH91', IJK=5,92,29, XB=183.6,185.6,33.8,70.6,20.0,31.6, MPI_PROCESS=6/
&MESH ID='MESH92', IJK=6,95,29, XB=185.6,188.0,31.8,69.8,20.0,31.6, MPI_PROCESS=6/
&MESH ID='MESH93', IJK=5,98,29, XB=188.0,190.0,29.4,68.6,20.0,31.6, MPI_PROCESS=6/
&MESH ID='MESH94', IJK=6,97,29, XB=190.0,192.4,27.4,66.2,20.0,31.6, MPI_PROCESS=6/
&MESH ID='MESH95', IJK=5,97,29, XB=192.4,194.4,25.4,64.2,20.0,31.6, MPI_PROCESS=6/
&MESH ID='MESH96', IJK=6,95,29, XB=194.4,196.8,24.2,62.2,20.0,31.6, MPI_PROCESS=6/
&MESH ID='MESH97', IJK=5,92,29, XB=196.8,198.8,23.0,59.8,20.0,31.6, MPI_PROCESS=6/
&MESH ID='MESH98', IJK=6,90,29, XB=198.8,201.2,22.2,58.2,20.0,31.6, MPI_PROCESS=6/
&MESH ID='MESH99', IJK=5,82,29, XB=201.2,203.2,23.0,55.8,20.0,31.6, MPI_PROCESS=6/
&MESH ID='MESH100', IJK=6,71,29, XB=203.2,205.6,25.4,53.8,20.0,31.6, MPI_PROCESS=6/
&MESH ID='MESH101', IJK=5,59,29, XB=205.6,207.6,27.8,51.4,20.0,31.6, MPI_PROCESS=6/
&MESH ID='MESH102', IJK=6,50,29, XB=207.6,210.0,29.8,49.8,20.0,31.6, MPI_PROCESS=6/
&MESH ID='MESH103', IJK=5,38,29, XB=210.0,212.0,32.2,47.4,20.0,31.6, MPI_PROCESS=6/
&MESH ID='MESH104', IJK=6,27,29, XB=212.0,214.4,34.6,45.4,20.0,31.6, MPI_PROCESS=6/
&MESH ID='MESH105', IJK=6,12,29, XB=214.4,216.8,37.0,41.8,20.0,31.6, MPI_PROCESS=6/
&MESH ID='MESH106', IJK=13,72,10, XB=132.4,137.6,72.6,101.4,31.6,35.6, MPI_PROCESS=6/
&MESH ID='MESH107', IJK=13,75,10, XB=137.6,142.8,69.4,99.4,31.6,35.6, MPI_PROCESS=6/
&MESH ID='MESH108', IJK=13,80,10, XB=142.8,148.0,66.2,98.2,31.6,35.6, MPI_PROCESS=6/
&MESH ID='MESH109', IJK=13,80,10, XB=148.0,153.2,63.0,95.0,31.6,35.6, MPI_PROCESS=6/
&MESH ID='MESH110', IJK=13,79,10, XB=153.2,158.4,60.2,91.8,31.6,35.6, MPI_PROCESS=6/
&MESH ID='MESH111', IJK=13,79,10, XB=158.4,163.6,57.0,88.6,31.6,35.6, MPI_PROCESS=6/
&MESH ID='MESH112', IJK=13,79,10, XB=163.6,168.8,53.8,85.4,31.6,35.6, MPI_PROCESS=6/
&MESH ID='MESH113', IJK=13,84,10, XB=168.8,174.0,49.0,82.6,31.6,35.6, MPI_PROCESS=6/
&MESH ID='MESH114', IJK=13,88,10, XB=174.0,179.2,44.2,79.4,31.6,35.6, MPI_PROCESS=6/
&MESH ID='MESH115', IJK=6,85,10, XB=179.2,181.6,42.2,76.2,31.6,35.6, MPI_PROCESS=6/
&MESH ID='MESH116', IJK=5,81,10, XB=181.6,183.6,40.2,72.6,31.6,35.6, MPI_PROCESS=6/
&MESH ID='MESH117', IJK=5,81,10, XB=183.6,185.6,38.2,70.6,31.6,35.6, MPI_PROCESS=6/
&MESH ID='MESH118', IJK=6,85,10, XB=185.6,188.0,35.8,69.8,31.6,35.6, MPI_PROCESS=6/
&MESH ID='MESH119', IJK=5,86,10, XB=188.0,190.0,34.2,68.6,31.6,35.6, MPI_PROCESS=6/
&MESH ID='MESH120', IJK=6,86,10, XB=190.0,192.4,31.8,66.2,31.6,35.6, MPI_PROCESS=6/
&MESH ID='MESH121', IJK=5,86,10, XB=192.4,194.4,29.8,64.2,31.6,35.6, MPI_PROCESS=6/
&MESH ID='MESH122', IJK=6,86,10, XB=194.4,196.8,27.8,62.2,31.6,35.6, MPI_PROCESS=6/
&MESH ID='MESH123', IJK=5,85,10, XB=196.8,198.8,25.8,59.8,31.6,35.6, MPI_PROCESS=6/
&MESH ID='MESH124', IJK=6,87,10, XB=198.8,201.2,23.4,58.2,31.6,35.6, MPI_PROCESS=6/
&MESH ID='MESH125', IJK=5,81,10, XB=201.2,203.2,23.4,55.8,31.6,35.6, MPI_PROCESS=6/
&MESH ID='MESH126', IJK=6,71,10, XB=203.2,205.6,25.4,53.8,31.6,35.6, MPI_PROCESS=6/
&MESH ID='MESH127', IJK=5,59,10, XB=205.6,207.6,27.8,51.4,31.6,35.6, MPI_PROCESS=6/
&MESH ID='MESH128', IJK=6,50,10, XB=207.6,210.0,29.8,49.8,31.6,35.6, MPI_PROCESS=6/
&MESH ID='MESH129', IJK=5,38,10, XB=210.0,212.0,32.2,47.4,31.6,35.6, MPI_PROCESS=6/
&MESH ID='MESH130', IJK=6,27,10, XB=212.0,214.4,34.6,45.4,31.6,35.6, MPI_PROCESS=6/
&MESH ID='MESH131', IJK=6,12,10, XB=214.4,216.8,37.0,41.8,31.6,35.6, MPI_PROCESS=6/
&MESH ID='MESH135', IJK=14,28,24, XB=185.6,188.4,53.4,59.0,35.6,40.4, MPI_PROCESS=6/
&MESH ID='MESH134', IJK=10,48,24, XB=183.6,185.6,51.0,60.6,35.6,40.4, MPI_PROCESS=6/
&MESH ID='MESH133', IJK=10,58,24, XB=181.6,183.6,49.0,60.6,35.6,40.4, MPI_PROCESS=6/
&MESH ID='MESH132', IJK=22,48,24, XB=177.2,181.6,49.0,58.6,35.6,40.4, MPI_PROCESS=6/
&MESH ID='MESH136', IJK=14,56,10, XB=158.8,161.6,62.6,73.8,35.6,37.6, MPI_PROCESS=6/
&MESH ID='MESH137', IJK=10,60,10, XB=161.6,163.6,62.2,74.2,35.6,37.6, MPI_PROCESS=6/
&MESH ID='MESH138', IJK=10,70,10, XB=163.6,165.6,60.6,74.6,35.6,37.6, MPI_PROCESS=6/
&MESH ID='MESH139', IJK=10,70,10, XB=165.6,167.6,59.8,73.8,35.6,37.6, MPI_PROCESS=6/
&MESH ID='MESH140', IJK=10,70,10, XB=167.6,169.6,59.0,73.0,35.6,37.6, MPI_PROCESS=6/
&MESH ID='MESH141', IJK=10,64,10, XB=169.6,171.6,59.0,71.8,35.6,37.6, MPI_PROCESS=6/
&MESH ID='MESH142', IJK=16,60,10, XB=171.6,174.8,59.4,71.4,35.6,37.6, MPI_PROCESS=6/
&MESH ID='MESH04', IJK=26,186,20, XB=137.6,142.8,62.2,99.4,16.0,20.0, MPI_PROCESS=6/
&MESH ID='MESH05', IJK=26,194,20, XB=142.8,148.0,59.4,98.2,16.0,20.0, MPI_PROCESS=6/
&MESH ID='MESH06', IJK=26,194,20, XB=148.0,153.2,56.2,95.0,16.0,20.0, MPI_PROCESS=6/
&MESH ID='MESH07', IJK=26,196,20, XB=153.2,158.4,52.6,91.8,16.0,20.0, MPI_PROCESS=6/
&MESH ID='MESH08', IJK=26,196,20, XB=158.4,163.6,49.4,88.6,16.0,20.0, MPI_PROCESS=6/
&MESH ID='MESH09', IJK=26,184,20, XB=163.6,168.8,48.6,85.4,16.0,20.0, MPI_PROCESS=6/
&MESH ID='MESH10', IJK=26,190,20, XB=168.8,174.0,44.6,82.6,16.0,20.0, MPI_PROCESS=6/
&MESH ID='MESH31', IJK=26,198,20, XB=174.0,179.2,39.8,79.4,16.0,20.0, MPI_PROCESS=6/
&MESH ID='MESH34', IJK=12,190,20, XB=179.2,181.6,38.2,76.2,16.0,20.0, MPI_PROCESS=6/
&MESH ID='MESH64', IJK=10,184,20, XB=181.6,183.6,35.8,72.6,16.0,20.0, MPI_PROCESS=6/
&MESH ID='MESH65', IJK=10,184,20, XB=183.6,185.6,33.8,70.6,16.0,20.0, MPI_PROCESS=6/
&MESH ID='MESH66', IJK=12,190,20, XB=185.6,188.0,31.8,69.8,16.0,20.0, MPI_PROCESS=6/
&MESH ID='MESH67', IJK=10,196,20, XB=188.0,190.0,29.4,68.6,16.0,20.0, MPI_PROCESS=6/
&MESH ID='MESH68', IJK=12,194,20, XB=190.0,192.4,27.4,66.2,16.0,20.0, MPI_PROCESS=6/
&MESH ID='MESH69', IJK=10,194,20, XB=192.4,194.4,25.4,64.2,16.0,20.0, MPI_PROCESS=6/
&MESH ID='MESH70', IJK=12,190,20, XB=194.4,196.8,24.2,62.2,16.0,20.0, MPI_PROCESS=6/
&MESH ID='MESH71', IJK=10,184,20, XB=196.8,198.8,23.0,59.8,16.0,20.0, MPI_PROCESS=6/
&MESH ID='MESH72', IJK=12,180,20, XB=198.8,201.2,22.2,58.2,16.0,20.0, MPI_PROCESS=6/
&MESH ID='MESH73', IJK=10,164,20, XB=201.2,203.2,23.0,55.8,16.0,20.0, MPI_PROCESS=6/
&MESH ID='MESH74', IJK=12,142,20, XB=203.2,205.6,25.4,53.8,16.0,20.0, MPI_PROCESS=6/
&MESH ID='MESH75', IJK=10,118,20, XB=205.6,207.6,27.8,51.4,16.0,20.0, MPI_PROCESS=6/
&MESH ID='MESH76', IJK=12,100,20, XB=207.6,210.0,29.8,49.8,16.0,20.0, MPI_PROCESS=6/
&MESH ID='MESH77', IJK=10,76,20, XB=210.0,212.0,32.2,47.4,16.0,20.0, MPI_PROCESS=6/
&MESH ID='MESH78', IJK=12,54,20, XB=212.0,214.4,34.6,45.4,16.0,20.0, MPI_PROCESS=6/
&MESH ID='MESH79', IJK=12,24,20, XB=214.4,216.8,37.0,41.8,16.0,20.0, MPI_PROCESS=6/
&MESH ID='MESH55', IJK=52,200,76, XB=86.6,91.8,81.6,101.6,20.0,27.6, MPI_PROCESS=7/
&MESH ID='MESH33', IJK=77,49,58, XB=86.6,102.0,101.6,111.4,20.0,31.6, MPI_PROCESS=7/
&MESH ID='MESH54', IJK=50,200,76, XB=91.8,96.8,81.6,101.6,20.0,27.6, MPI_PROCESS=7/
&MESH ID='MESH53', IJK=52,200,76, XB=96.8,102.0,81.6,101.6,20.0,27.6, MPI_PROCESS=7/
&MESH ID='MESH17', IJK=96,394,40, XB=102.0,111.6,70.6,110.0,16.0,20.0, MPI_PROCESS=8/
&MESH ID='MESH36', IJK=48,197,58, XB=102.0,111.6,70.6,110.0,20.0,31.6, MPI_PROCESS=8/
&MESH ID='MESH15', IJK=77,49,20, XB=86.6,102.0,101.6,111.4,31.6,35.6, MPI_PROCESS=9/
&MESH ID='MESH43', IJK=77,11,24, XB=86.6,102.0,101.6,103.8,35.6,40.4, MPI_PROCESS=9/
&MESH ID='MESH35', IJK=77,43,58, XB=86.6,102.0,73.0,81.6,20.0,31.6, MPI_PROCESS=9/
&MESH ID='MESH16', IJK=77,18,20, XB=86.6,102.0,78.0,81.6,31.6,35.6, MPI_PROCESS=9/
&MESH ID='MESH44', IJK=77,18,24, XB=86.6,102.0,78.0,81.6,35.6,40.4, MPI_PROCESS=9/
&MESH ID='MESH61', IJK=26,100,64, XB=86.6,91.8,81.6,101.6,27.6,40.4, MPI_PROCESS=9/
&MESH ID='MESH62', IJK=25,100,64, XB=91.8,96.8,81.6,101.6,27.6,40.4, MPI_PROCESS=9/
&MESH ID='MESH63', IJK=26,100,64, XB=96.8,102.0,81.6,101.6,27.6,40.4, MPI_PROCESS=9/
&MESH ID='MESH45', IJK=48,126,24, XB=102.0,111.6,76.2,101.4,35.6,40.4, MPI_PROCESS=9/
&MESH ID='MESH18', IJK=48,169,20, XB=102.0,111.6,76.2,110.0,31.6,35.6, MPI_PROCESS=9/
&MESH ID='MESH46', IJK=52,128,22, XB=111.6,122.0,73.8,99.4,35.6,40.0, MPI_PROCESS=9/
&MESH ID='MESH19', IJK=26,85,10, XB=111.6,122.0,73.8,107.8,31.6,35.6, MPI_PROCESS=9/
&MESH ID='MESH37', IJK=26,98,29, XB=111.6,122.0,68.6,107.8,20.0,31.6, MPI_PROCESS=9/
&MESH ID='MESH02', IJK=52,196,20, XB=111.6,122.0,68.6,107.8,16.0,20.0, MPI_PROCESS=9/
&MESH ID='MESH26', IJK=52,190,20, XB=122.0,132.4,67.8,105.8,16.0,20.0, MPI_PROCESS=9/
&MESH ID='MESH27', IJK=26,95,29, XB=122.0,132.4,67.8,105.8,20.0,31.6, MPI_PROCESS=9/
&MESH ID='MESH38', IJK=26,82,10, XB=122.0,132.4,73.0,105.8,31.6,35.6, MPI_PROCESS=9/
&MESH ID='MESH47', IJK=52,120,22, XB=122.0,132.4,73.0,97.0,35.6,40.0, MPI_PROCESS=9/
&MESH ID='MESH03', IJK=26,180,20, XB=132.4,137.6,65.4,101.4,16.0,20.0, MPI_PROCESS=9/
